Molecule 1
  CDK     0516241028

 28 30  0  0  0  0  0  0  0  0999 V2000
   -7.4623    0.5116    0.0000 C   0  0  0  0  0  0  0  0  0  0  0  0
   -6.1633    1.2616    0.0000 C   0  0  0  0  0  0  0  0  0  0  0  0
   -4.8642    0.5116    0.0000 C   0  0  0  0  0  0  0  0  0  0  0  0
   -3.5652    1.2616    0.0000 C   0  0  0  0  0  0  0  0  0  0  0  0
   -3.5652    2.7616    0.0000 C   0  0  0  0  0  0  0  0  0  0  0  0
   -2.2652    3.5116    0.0000 C   0  0  0  0  0  0  0  0  0  0  0  0
   -2.2652    5.0116    0.0000 C   0  0  0  0  0  0  0  0  0  0  0  0
   -3.5652    5.7616    0.0000 C   0  0  0  0  0  0  0  0  0  0  0  0
   -4.8652    5.0116    0.0000 C   0  0  0  0  0  0  0  0  0  0  0  0
   -4.8652    3.5116    0.0000 C   0  0  0  0  0  0  0  0  0  0  0  0
   -2.2661    0.5116    0.0000 C   0  0  0  0  0  0  0  0  0  0  0  0
   -2.2735   -0.9883    0.0000 C   0  0  0  0  0  0  0  0  0  0  0  0
   -1.0072   -1.7446    0.0000 C   0  0  0  0  0  0  0  0  0  0  0  0
    0.3464   -1.0012    0.0000 C   0  0  0  0  0  0  0  0  0  0  0  0
    0.3538    0.4987    0.0000 C   0  0  0  0  0  0  0  0  0  0  0  0
   -0.9925    1.2554    0.0000 C   0  0  0  0  0  0  0  0  0  0  0  0
    1.6355   -1.7683    0.0000 O   0  0  0  0  0  0  0  0  0  0  0  0
    1.6157   -3.2682    0.0000 C   0  0  0  0  0  0  0  0  0  0  0  0
    2.9048   -4.0352    0.0000 C   0  0  0  0  0  0  0  0  0  0  0  0
    2.8850   -5.5351    0.0000 N   0  0  0  0  0  0  0  0  0  0  0  0
    4.1741   -6.3021    0.0000 C   0  0  0  0  0  0  0  0  0  0  0  0
    1.5762   -6.2679    0.0000 C   0  0  0  0  0  0  0  0  0  0  0  0
   -4.8642   -0.9884    0.0000 C   0  0  0  0  0  0  0  0  0  0  0  0
   -3.5642   -1.7384    0.0000 C   0  0  0  0  0  0  0  0  0  0  0  0
   -3.5642   -3.2384    0.0000 C   0  0  0  0  0  0  0  0  0  0  0  0
   -4.8642   -3.9884    0.0000 C   0  0  0  0  0  0  0  0  0  0  0  0
   -6.1642   -3.2384    0.0000 C   0  0  0  0  0  0  0  0  0  0  0  0
   -6.1642   -1.7384    0.0000 C   0  0  0  0  0  0  0  0  0  0  0  0
  1  2  1  0  0  0  0 
  2  3  1  0  0  0  0 
  3  4  2  0  0  0  0 
  4  5  1  0  0  0  0 
  5  6  2  0  0  0  0 
  6  7  1  0  0  0  0 
  7  8  2  0  0  0  0 
  8  9  1  0  0  0  0 
  9 10  2  0  0  0  0 
  5 10  1  0  0  0  0 
  4 11  1  0  0  0  0 
 11 12  2  0  0  0  0 
 12 13  1  0  0  0  0 
 13 14  2  0  0  0  0 
 14 15  1  0  0  0  0 
 15 16  2  0  0  0  0 
 11 16  1  0  0  0  0 
 14 17  1  0  0  0  0 
 17 18  1  0  0  0  0 
 18 19  1  0  0  0  0 
 19 20  1  0  0  0  0 
 20 21  1  0  0  0  0 
 20 22  1  0  0  0  0 
  3 23  1  0  0  0  0 
 23 24  2  0  0  0  0 
 24 25  1  0  0  0  0 
 25 26  2  0  0  0  0 
 26 27  1  0  0  0  0 
 27 28  2  0  0  0  0 
 23 28  1  0  0  0  0 
M  END
> <SMILES>
CC/C(=C(\C1=CC=CC=C1)/C2=CC=C(C=C2)OCCN(C)C)/C3=CC=CC=C3

$$$$
Molecule 1_metabolite 1
  CDK     0516241028

 58 60  0  0  0  0  0  0  0  0999 V2000
  -10.2170    1.1846    0.0000 C   0  0  0  0  0  0  0  0  0  0  0  0
  -11.5160    1.9346    0.0000 H   0  0  0  0  0  0  0  0  0  0  0  0
  -11.1812    0.0355    0.0000 H   0  0  0  0  0  0  0  0  0  0  0  0
   -9.2528    0.0355    0.0000 H   0  0  0  0  0  0  0  0  0  0  0  0
   -8.9180    1.9346    0.0000 C   0  0  0  0  0  0  0  0  0  0  0  0
   -7.9538    3.0836    0.0000 H   0  0  0  0  0  0  0  0  0  0  0  0
   -9.8822    3.0836    0.0000 H   0  0  0  0  0  0  0  0  0  0  0  0
   -7.6189    1.1846    0.0000 C   0  0  0  0  0  0  0  0  0  0  0  0
   -5.9042    2.1746    0.0000 C   0  0  0  0  0  0  0  0  0  0  0  0
   -5.9042    4.1546    0.0000 C   0  0  0  0  0  0  0  0  0  0  0  0
   -4.6042    4.9046    0.0000 C   0  0  0  0  0  0  0  0  0  0  0  0
   -3.3053    4.1544    0.0000 H   0  0  0  0  0  0  0  0  0  0  0  0
   -4.6042    6.4046    0.0000 C   0  0  0  0  0  0  0  0  0  0  0  0
   -3.3053    7.1548    0.0000 H   0  0  0  0  0  0  0  0  0  0  0  0
   -5.9042    7.1546    0.0000 C   0  0  0  0  0  0  0  0  0  0  0  0
   -5.9042    8.6546    0.0000 H   0  0  0  0  0  0  0  0  0  0  0  0
   -7.2042    6.4046    0.0000 C   0  0  0  0  0  0  0  0  0  0  0  0
   -8.5031    7.1548    0.0000 H   0  0  0  0  0  0  0  0  0  0  0  0
   -7.2042    4.9046    0.0000 C   0  0  0  0  0  0  0  0  0  0  0  0
   -8.5031    4.1544    0.0000 H   0  0  0  0  0  0  0  0  0  0  0  0
   -3.7738    0.9446    0.0000 C   0  0  0  0  0  0  0  0  0  0  0  0
   -2.4785    1.7010    0.0000 C   0  0  0  0  0  0  0  0  0  0  0  0
   -2.4932    3.2009    0.0000 H   0  0  0  0  0  0  0  0  0  0  0  0
   -1.1904    0.9824    0.0000 C   0  0  0  0  0  0  0  0  0  0  0  0
    0.0949    1.7558    0.0000 H   0  0  0  0  0  0  0  0  0  0  0  0
   -1.1573   -0.5615    0.0000 C   0  0  0  0  0  0  0  0  0  0  0  0
   -2.4526   -1.3179    0.0000 C   0  0  0  0  0  0  0  0  0  0  0  0
   -2.4576   -2.8179    0.0000 H   0  0  0  0  0  0  0  0  0  0  0  0
   -3.7810   -0.5303    0.0000 C   0  0  0  0  0  0  0  0  0  0  0  0
   -5.0862   -1.2696    0.0000 H   0  0  0  0  0  0  0  0  0  0  0  0
    0.1515   -1.2944    0.0000 O   0  0  0  0  0  0  0  0  0  0  0  0
    1.4406   -0.5273    0.0000 C   0  0  0  0  0  0  0  0  0  0  0  0
    2.3895    0.6343    0.0000 H   0  0  0  0  0  0  0  0  0  0  0  0
    0.4613    0.6089    0.0000 H   0  0  0  0  0  0  0  0  0  0  0  0
    2.7494   -1.2601    0.0000 C   0  0  0  0  0  0  0  0  0  0  0  0
    1.8004   -2.4218    0.0000 H   0  0  0  0  0  0  0  0  0  0  0  0
    3.7286   -2.3964    0.0000 H   0  0  0  0  0  0  0  0  0  0  0  0
    4.4509   -0.2476    0.0000 N   0  0  0  0  0  0  0  0  0  0  0  0
    4.4311    1.2522    0.0000 C   0  0  0  0  0  0  0  0  0  0  0  0
    3.1223    1.9850    0.0000 H   0  0  0  0  0  0  0  0  0  0  0  0
    4.9256    2.6684    0.0000 H   0  0  0  0  0  0  0  0  0  0  0  0
    5.9117    1.0112    0.0000 H   0  0  0  0  0  0  0  0  0  0  0  0
    5.7597   -0.9805    0.0000 C   0  0  0  0  0  0  0  0  0  0  0  0
    4.8107   -2.1421    0.0000 H   0  0  0  0  0  0  0  0  0  0  0  0
    6.7389   -2.1167    0.0000 H   0  0  0  0  0  0  0  0  0  0  0  0
    7.0487   -0.2134    0.0000 O   0  0  0  0  0  0  0  0  0  0  0  0
    8.3576   -0.9463    0.0000 H   0  0  0  0  0  0  0  0  0  0  0  0
   -7.6189   -0.3154    0.0000 C   0  0  0  0  0  0  0  0  0  0  0  0
   -6.3189   -1.0654    0.0000 C   0  0  0  0  0  0  0  0  0  0  0  0
   -4.1887    0.1649    0.0000 H   0  0  0  0  0  0  0  0  0  0  0  0
   -6.3189   -2.5654    0.0000 C   0  0  0  0  0  0  0  0  0  0  0  0
   -5.0200   -3.3156    0.0000 H   0  0  0  0  0  0  0  0  0  0  0  0
   -7.6189   -3.3154    0.0000 C   0  0  0  0  0  0  0  0  0  0  0  0
   -7.6189   -4.8154    0.0000 H   0  0  0  0  0  0  0  0  0  0  0  0
   -8.9189   -2.5654    0.0000 C   0  0  0  0  0  0  0  0  0  0  0  0
  -10.2179   -3.3156    0.0000 H   0  0  0  0  0  0  0  0  0  0  0  0
   -8.9189   -1.0654    0.0000 C   0  0  0  0  0  0  0  0  0  0  0  0
  -10.2179   -0.3152    0.0000 H   0  0  0  0  0  0  0  0  0  0  0  0
  1  2  1  0  0  0  0 
  1  3  1  0  0  0  0 
  1  4  1  0  0  0  0 
  1  5  1  0  0  0  0 
  5  6  1  0  0  0  0 
  5  7  1  0  0  0  0 
  5  8  1  0  0  0  0 
  8  9  2  0  0  0  0 
  9 10  1  0  0  0  0 
 10 11  2  0  0  0  0 
 11 12  1  0  0  0  0 
 11 13  1  0  0  0  0 
 13 14  1  0  0  0  0 
 13 15  2  0  0  0  0 
 15 16  1  0  0  0  0 
 15 17  1  0  0  0  0 
 17 18  1  0  0  0  0 
 17 19  2  0  0  0  0 
 10 19  1  0  0  0  0 
 19 20  1  0  0  0  0 
  9 21  1  0  0  0  0 
 21 22  2  0  0  0  0 
 22 23  1  0  0  0  0 
 22 24  1  0  0  0  0 
 24 25  1  0  0  0  0 
 24 26  2  0  0  0  0 
 26 27  1  0  0  0  0 
 27 28  1  0  0  0  0 
 27 29  2  0  0  0  0 
 21 29  1  0  0  0  0 
 29 30  1  0  0  0  0 
 26 31  1  0  0  0  0 
 31 32  1  0  0  0  0 
 32 33  1  0  0  0  0 
 32 34  1  0  0  0  0 
 32 35  1  0  0  0  0 
 35 36  1  0  0  0  0 
 35 37  1  0  0  0  0 
 35 38  1  0  0  0  0 
 38 39  1  0  0  0  0 
 39 40  1  0  0  0  0 
 39 41  1  0  0  0  0 
 39 42  1  0  0  0  0 
 38 43  1  0  0  0  0 
 43 44  1  0  0  0  0 
 43 45  1  0  0  0  0 
 43 46  1  0  0  0  0 
 46 47  1  0  0  0  0 
  8 48  1  0  0  0  0 
 48 49  2  0  0  0  0 
 49 50  1  0  0  0  0 
 49 51  1  0  0  0  0 
 51 52  1  0  0  0  0 
 51 53  2  0  0  0  0 
 53 54  1  0  0  0  0 
 53 55  1  0  0  0  0 
 55 56  1  0  0  0  0 
 55 57  2  0  0  0  0 
 48 57  1  0  0  0  0 
 57 58  1  0  0  0  0 
M  END
> <Rank>
1

> <Priority_score>
0.764

> <Reaction_type>
aliphatic hydroxylation

> <Parent_ID>
1

> <Parent_InChI>
InChI=1S/C26H29NO/c1-4-25(21-11-7-5-8-12-21)26(22-13-9-6-10-14-22)23-15-17-24(18-16-23)28-20-19-27(2)3/h5-18H,4,19-20H2,1-3H3

> <Parent_SMILES>
CC/C(=C(\C1=CC=CC=C1)/C2=CC=C(C=C2)OCCN(C)C)/C3=CC=CC=C3

$$$$
Molecule 1_metabolite 2
  CDK     0516241028

 58 60  0  0  0  0  0  0  0  0999 V2000
   -7.7508    5.1765    0.0000 C   0  0  0  0  0  0  0  0  0  0  0  0
   -8.5008    6.4755    0.0000 H   0  0  0  0  0  0  0  0  0  0  0  0
   -9.1603    4.6634    0.0000 H   0  0  0  0  0  0  0  0  0  0  0  0
   -7.4903    3.6993    0.0000 H   0  0  0  0  0  0  0  0  0  0  0  0
   -6.2508    5.1765    0.0000 C   0  0  0  0  0  0  0  0  0  0  0  0
   -4.8412    5.6895    0.0000 H   0  0  0  0  0  0  0  0  0  0  0  0
   -6.5112    6.6537    0.0000 H   0  0  0  0  0  0  0  0  0  0  0  0
   -5.5008    3.8774    0.0000 C   0  0  0  0  0  0  0  0  0  0  0  0
   -3.5208    3.8774    0.0000 C   0  0  0  0  0  0  0  0  0  0  0  0
   -2.5308    5.5922    0.0000 C   0  0  0  0  0  0  0  0  0  0  0  0
   -1.0299    5.5917    0.0000 C   0  0  0  0  0  0  0  0  0  0  0  0
   -0.2801    4.2925    0.0000 H   0  0  0  0  0  0  0  0  0  0  0  0
   -0.2799    6.8907    0.0000 C   0  0  0  0  0  0  0  0  0  0  0  0
    1.2201    6.8910    0.0000 H   0  0  0  0  0  0  0  0  0  0  0  0
   -1.0308    8.1902    0.0000 C   0  0  0  0  0  0  0  0  0  0  0  0
   -0.2808    9.4893    0.0000 H   0  0  0  0  0  0  0  0  0  0  0  0
   -2.5316    8.1907    0.0000 C   0  0  0  0  0  0  0  0  0  0  0  0
   -3.2814    9.4899    0.0000 H   0  0  0  0  0  0  0  0  0  0  0  0
   -3.2816    6.8917    0.0000 C   0  0  0  0  0  0  0  0  0  0  0  0
   -4.7816    6.8914    0.0000 H   0  0  0  0  0  0  0  0  0  0  0  0
   -2.2908    1.7470    0.0000 C   0  0  0  0  0  0  0  0  0  0  0  0
   -0.7908    1.7544    0.0000 C   0  0  0  0  0  0  0  0  0  0  0  0
   -0.0536    3.0607    0.0000 H   0  0  0  0  0  0  0  0  0  0  0  0
   -0.0345    0.4881    0.0000 C   0  0  0  0  0  0  0  0  0  0  0  0
    1.4652    0.5152    0.0000 H   0  0  0  0  0  0  0  0  0  0  0  0
   -0.7779   -0.8656    0.0000 C   0  0  0  0  0  0  0  0  0  0  0  0
   -2.2779   -0.8730    0.0000 C   0  0  0  0  0  0  0  0  0  0  0  0
   -3.0322   -2.1695    0.0000 H   0  0  0  0  0  0  0  0  0  0  0  0
   -3.0345    0.4733    0.0000 C   0  0  0  0  0  0  0  0  0  0  0  0
   -4.5345    0.4857    0.0000 H   0  0  0  0  0  0  0  0  0  0  0  0
   -0.0108   -2.1546    0.0000 O   0  0  0  0  0  0  0  0  0  0  0  0
    1.4890   -2.1349    0.0000 C   0  0  0  0  0  0  0  0  0  0  0  0
    2.8917   -1.6033    0.0000 H   0  0  0  0  0  0  0  0  0  0  0  0
    1.2091   -0.6612    0.0000 H   0  0  0  0  0  0  0  0  0  0  0  0
    2.2561   -3.4239    0.0000 C   0  0  0  0  0  0  0  0  0  0  0  0
    0.8534   -3.9555    0.0000 H   0  0  0  0  0  0  0  0  0  0  0  0
    2.5360   -4.8976    0.0000 H   0  0  0  0  0  0  0  0  0  0  0  0
    4.2359   -3.3978    0.0000 N   0  0  0  0  0  0  0  0  0  0  0  0
    5.2484   -5.0994    0.0000 C   0  0  0  0  0  0  0  0  0  0  0  0
    6.7483   -5.0796    0.0000 H   0  0  0  0  0  0  0  0  0  0  0  0
    3.8457   -5.6309    0.0000 H   0  0  0  0  0  0  0  0  0  0  0  0
    5.5283   -6.5730    0.0000 H   0  0  0  0  0  0  0  0  0  0  0  0
    5.6386   -2.8663    0.0000 C   0  0  0  0  0  0  0  0  0  0  0  0
    6.8002   -3.8152    0.0000 H   0  0  0  0  0  0  0  0  0  0  0  0
    6.7748   -1.8871    0.0000 H   0  0  0  0  0  0  0  0  0  0  0  0
    4.8715   -1.5772    0.0000 H   0  0  0  0  0  0  0  0  0  0  0  0
    3.9560   -1.9242    0.0000 O   0  0  0  0  0  0  0  0  0  0  0  0
   -6.2508    2.5784    0.0000 C   0  0  0  0  0  0  0  0  0  0  0  0
   -5.4999    1.2789    0.0000 C   0  0  0  0  0  0  0  0  0  0  0  0
   -3.0399    1.2793    0.0000 H   0  0  0  0  0  0  0  0  0  0  0  0
   -6.2499   -0.0202    0.0000 C   0  0  0  0  0  0  0  0  0  0  0  0
   -5.5001   -1.3193    0.0000 H   0  0  0  0  0  0  0  0  0  0  0  0
   -7.7508   -0.0197    0.0000 C   0  0  0  0  0  0  0  0  0  0  0  0
   -8.5008   -1.3187    0.0000 H   0  0  0  0  0  0  0  0  0  0  0  0
   -8.5016    1.2798    0.0000 C   0  0  0  0  0  0  0  0  0  0  0  0
  -10.0016    1.2796    0.0000 H   0  0  0  0  0  0  0  0  0  0  0  0
   -7.7516    2.5789    0.0000 C   0  0  0  0  0  0  0  0  0  0  0  0
   -8.5014    3.8780    0.0000 H   0  0  0  0  0  0  0  0  0  0  0  0
  1  2  1  0  0  0  0 
  1  3  1  0  0  0  0 
  1  4  1  0  0  0  0 
  1  5  1  0  0  0  0 
  5  6  1  0  0  0  0 
  5  7  1  0  0  0  0 
  5  8  1  0  0  0  0 
  8  9  2  0  0  0  0 
  9 10  1  0  0  0  0 
 10 11  2  0  0  0  0 
 11 12  1  0  0  0  0 
 11 13  1  0  0  0  0 
 13 14  1  0  0  0  0 
 13 15  2  0  0  0  0 
 15 16  1  0  0  0  0 
 15 17  1  0  0  0  0 
 17 18  1  0  0  0  0 
 17 19  2  0  0  0  0 
 10 19  1  0  0  0  0 
 19 20  1  0  0  0  0 
  9 21  1  0  0  0  0 
 21 22  2  0  0  0  0 
 22 23  1  0  0  0  0 
 22 24  1  0  0  0  0 
 24 25  1  0  0  0  0 
 24 26  2  0  0  0  0 
 26 27  1  0  0  0  0 
 27 28  1  0  0  0  0 
 27 29  2  0  0  0  0 
 21 29  1  0  0  0  0 
 29 30  1  0  0  0  0 
 26 31  1  0  0  0  0 
 31 32  1  0  0  0  0 
 32 33  1  0  0  0  0 
 32 34  1  0  0  0  0 
 32 35  1  0  0  0  0 
 35 36  1  0  0  0  0 
 35 37  1  0  0  0  0 
 35 38  1  0  0  0  0 
 38 39  1  0  0  0  0 
 39 40  1  0  0  0  0 
 39 41  1  0  0  0  0 
 39 42  1  0  0  0  0 
 38 43  1  0  0  0  0 
 43 44  1  0  0  0  0 
 43 45  1  0  0  0  0 
 43 46  1  0  0  0  0 
 38 47  1  0  0  0  0 
  8 48  1  0  0  0  0 
 48 49  2  0  0  0  0 
 49 50  1  0  0  0  0 
 49 51  1  0  0  0  0 
 51 52  1  0  0  0  0 
 51 53  2  0  0  0  0 
 53 54  1  0  0  0  0 
 53 55  1  0  0  0  0 
 55 56  1  0  0  0  0 
 55 57  2  0  0  0  0 
 48 57  1  0  0  0  0 
 57 58  1  0  0  0  0 
M  CHG  1  38   1
M  CHG  1  47  -1
M  END
> <Rank>
1

> <Priority_score>
0.764

> <Reaction_type>
N-oxidation_(RN(CH3)2)

> <Parent_ID>
1

> <Parent_InChI>
InChI=1S/C26H29NO/c1-4-25(21-11-7-5-8-12-21)26(22-13-9-6-10-14-22)23-15-17-24(18-16-23)28-20-19-27(2)3/h5-18H,4,19-20H2,1-3H3

> <Parent_SMILES>
CC/C(=C(\C1=CC=CC=C1)/C2=CC=C(C=C2)OCCN(C)C)/C3=CC=CC=C3

$$$$
Molecule 1_metabolite 3
  CDK     0516241028

 54 56  0  0  0  0  0  0  0  0999 V2000
   -7.5907    4.8507    0.0000 C   0  0  0  0  0  0  0  0  0  0  0  0
   -8.3407    6.1497    0.0000 H   0  0  0  0  0  0  0  0  0  0  0  0
   -9.0002    4.3376    0.0000 H   0  0  0  0  0  0  0  0  0  0  0  0
   -7.3302    3.3734    0.0000 H   0  0  0  0  0  0  0  0  0  0  0  0
   -6.0907    4.8507    0.0000 C   0  0  0  0  0  0  0  0  0  0  0  0
   -4.6812    5.3637    0.0000 H   0  0  0  0  0  0  0  0  0  0  0  0
   -6.3512    6.3279    0.0000 H   0  0  0  0  0  0  0  0  0  0  0  0
   -5.3407    3.5516    0.0000 C   0  0  0  0  0  0  0  0  0  0  0  0
   -3.3607    3.5516    0.0000 C   0  0  0  0  0  0  0  0  0  0  0  0
   -2.3707    5.2664    0.0000 C   0  0  0  0  0  0  0  0  0  0  0  0
   -0.8699    5.2659    0.0000 C   0  0  0  0  0  0  0  0  0  0  0  0
   -0.1201    3.9667    0.0000 H   0  0  0  0  0  0  0  0  0  0  0  0
   -0.1199    6.5649    0.0000 C   0  0  0  0  0  0  0  0  0  0  0  0
    1.3801    6.5651    0.0000 H   0  0  0  0  0  0  0  0  0  0  0  0
   -0.8707    7.8644    0.0000 C   0  0  0  0  0  0  0  0  0  0  0  0
   -0.1207    9.1635    0.0000 H   0  0  0  0  0  0  0  0  0  0  0  0
   -2.3715    7.8649    0.0000 C   0  0  0  0  0  0  0  0  0  0  0  0
   -3.1213    9.1641    0.0000 H   0  0  0  0  0  0  0  0  0  0  0  0
   -3.1215    6.5659    0.0000 C   0  0  0  0  0  0  0  0  0  0  0  0
   -4.6215    6.5656    0.0000 H   0  0  0  0  0  0  0  0  0  0  0  0
   -2.1307    1.4212    0.0000 C   0  0  0  0  0  0  0  0  0  0  0  0
   -0.6307    1.4286    0.0000 C   0  0  0  0  0  0  0  0  0  0  0  0
    0.1065    2.7349    0.0000 H   0  0  0  0  0  0  0  0  0  0  0  0
    0.1255    0.1623    0.0000 C   0  0  0  0  0  0  0  0  0  0  0  0
    1.6253    0.1894    0.0000 H   0  0  0  0  0  0  0  0  0  0  0  0
   -0.6178   -1.1914    0.0000 C   0  0  0  0  0  0  0  0  0  0  0  0
   -2.1178   -1.1988    0.0000 C   0  0  0  0  0  0  0  0  0  0  0  0
   -2.8721   -2.4953    0.0000 H   0  0  0  0  0  0  0  0  0  0  0  0
   -2.8744    0.1475    0.0000 C   0  0  0  0  0  0  0  0  0  0  0  0
   -4.3744    0.1599    0.0000 H   0  0  0  0  0  0  0  0  0  0  0  0
    0.1492   -2.4804    0.0000 O   0  0  0  0  0  0  0  0  0  0  0  0
    1.6491   -2.4607    0.0000 C   0  0  0  0  0  0  0  0  0  0  0  0
    3.0518   -1.9291    0.0000 H   0  0  0  0  0  0  0  0  0  0  0  0
    1.3692   -0.9870    0.0000 H   0  0  0  0  0  0  0  0  0  0  0  0
    2.4161   -3.7497    0.0000 C   0  0  0  0  0  0  0  0  0  0  0  0
    1.0135   -4.2813    0.0000 H   0  0  0  0  0  0  0  0  0  0  0  0
    2.6961   -5.2234    0.0000 H   0  0  0  0  0  0  0  0  0  0  0  0
    3.9160   -3.7300    0.0000 N   0  0  0  0  0  0  0  0  0  0  0  0
    4.6488   -2.4212    0.0000 H   0  0  0  0  0  0  0  0  0  0  0  0
    4.6831   -5.0190    0.0000 C   0  0  0  0  0  0  0  0  0  0  0  0
    3.9502   -6.3278    0.0000 H   0  0  0  0  0  0  0  0  0  0  0  0
    5.8193   -4.0398    0.0000 H   0  0  0  0  0  0  0  0  0  0  0  0
    5.8447   -5.9680    0.0000 H   0  0  0  0  0  0  0  0  0  0  0  0
   -6.0907    2.2526    0.0000 C   0  0  0  0  0  0  0  0  0  0  0  0
   -5.3399    0.9531    0.0000 C   0  0  0  0  0  0  0  0  0  0  0  0
   -2.8799    0.9535    0.0000 H   0  0  0  0  0  0  0  0  0  0  0  0
   -6.0899   -0.3460    0.0000 C   0  0  0  0  0  0  0  0  0  0  0  0
   -5.3401   -1.6451    0.0000 H   0  0  0  0  0  0  0  0  0  0  0  0
   -7.5907   -0.3455    0.0000 C   0  0  0  0  0  0  0  0  0  0  0  0
   -8.3407   -1.6445    0.0000 H   0  0  0  0  0  0  0  0  0  0  0  0
   -8.3415    0.9540    0.0000 C   0  0  0  0  0  0  0  0  0  0  0  0
   -9.8415    0.9538    0.0000 H   0  0  0  0  0  0  0  0  0  0  0  0
   -7.5915    2.2531    0.0000 C   0  0  0  0  0  0  0  0  0  0  0  0
   -8.3413    3.5522    0.0000 H   0  0  0  0  0  0  0  0  0  0  0  0
  1  2  1  0  0  0  0 
  1  3  1  0  0  0  0 
  1  4  1  0  0  0  0 
  1  5  1  0  0  0  0 
  5  6  1  0  0  0  0 
  5  7  1  0  0  0  0 
  5  8  1  0  0  0  0 
  8  9  2  0  0  0  0 
  9 10  1  0  0  0  0 
 10 11  2  0  0  0  0 
 11 12  1  0  0  0  0 
 11 13  1  0  0  0  0 
 13 14  1  0  0  0  0 
 13 15  2  0  0  0  0 
 15 16  1  0  0  0  0 
 15 17  1  0  0  0  0 
 17 18  1  0  0  0  0 
 17 19  2  0  0  0  0 
 10 19  1  0  0  0  0 
 19 20  1  0  0  0  0 
  9 21  1  0  0  0  0 
 21 22  2  0  0  0  0 
 22 23  1  0  0  0  0 
 22 24  1  0  0  0  0 
 24 25  1  0  0  0  0 
 24 26  2  0  0  0  0 
 26 27  1  0  0  0  0 
 27 28  1  0  0  0  0 
 27 29  2  0  0  0  0 
 21 29  1  0  0  0  0 
 29 30  1  0  0  0  0 
 26 31  1  0  0  0  0 
 31 32  1  0  0  0  0 
 32 33  1  0  0  0  0 
 32 34  1  0  0  0  0 
 32 35  1  0  0  0  0 
 35 36  1  0  0  0  0 
 35 37  1  0  0  0  0 
 35 38  1  0  0  0  0 
 38 39  1  0  0  0  0 
 38 40  1  0  0  0  0 
 40 41  1  0  0  0  0 
 40 42  1  0  0  0  0 
 40 43  1  0  0  0  0 
  8 44  1  0  0  0  0 
 44 45  2  0  0  0  0 
 45 46  1  0  0  0  0 
 45 47  1  0  0  0  0 
 47 48  1  0  0  0  0 
 47 49  2  0  0  0  0 
 49 50  1  0  0  0  0 
 49 51  1  0  0  0  0 
 51 52  1  0  0  0  0 
 51 53  2  0  0  0  0 
 44 53  1  0  0  0  0 
 53 54  1  0  0  0  0 
M  END
> <Rank>
1

> <Priority_score>
0.764

> <Reaction_type>
N-demethylation_(R-N(CH3)2)

> <Parent_ID>
1

> <Parent_InChI>
InChI=1S/C26H29NO/c1-4-25(21-11-7-5-8-12-21)26(22-13-9-6-10-14-22)23-15-17-24(18-16-23)28-20-19-27(2)3/h5-18H,4,19-20H2,1-3H3

> <Parent_SMILES>
CC/C(=C(\C1=CC=CC=C1)/C2=CC=C(C=C2)OCCN(C)C)/C3=CC=CC=C3

$$$$
Molecule 1_metabolite 4
  CDK     0516241028

 78 81  0  0  0  0  0  0  0  0999 V2000
   16.2319   -9.4768    0.0000 C   0  0  0  0  0  0  0  0  0  0  0  0
   17.3679  -10.4563    0.0000 H   0  0  0  0  0  0  0  0  0  0  0  0
   17.3938   -8.5281    0.0000 H   0  0  0  0  0  0  0  0  0  0  0  0
   15.4993   -8.1678    0.0000 H   0  0  0  0  0  0  0  0  0  0  0  0
   14.8156   -9.9709    0.0000 C   0  0  0  0  0  0  0  0  0  0  0  0
   13.6537  -10.9196    0.0000 H   0  0  0  0  0  0  0  0  0  0  0  0
   15.5481  -11.2799    0.0000 H   0  0  0  0  0  0  0  0  0  0  0  0
   13.6795   -8.9914    0.0000 C   0  0  0  0  0  0  0  0  0  0  0  0
   11.8101   -9.6437    0.0000 C   0  0  0  0  0  0  0  0  0  0  0  0
   11.5298  -11.1173    0.0000 C   0  0  0  0  0  0  0  0  0  0  0  0
   12.6668  -12.0969    0.0000 C   0  0  0  0  0  0  0  0  0  0  0  0
   14.0830  -11.6026    0.0000 H   0  0  0  0  0  0  0  0  0  0  0  0
   12.3866  -13.5705    0.0000 C   0  0  0  0  0  0  0  0  0  0  0  0
   13.5225  -14.5502    0.0000 H   0  0  0  0  0  0  0  0  0  0  0  0
   10.9694  -14.0645    0.0000 C   0  0  0  0  0  0  0  0  0  0  0  0
   10.6892  -15.5380    0.0000 H   0  0  0  0  0  0  0  0  0  0  0  0
    9.8324  -13.0848    0.0000 C   0  0  0  0  0  0  0  0  0  0  0  0
    8.4162  -13.5791    0.0000 H   0  0  0  0  0  0  0  0  0  0  0  0
   10.1126  -11.6112    0.0000 C   0  0  0  0  0  0  0  0  0  0  0  0
    8.9767  -10.6315    0.0000 H   0  0  0  0  0  0  0  0  0  0  0  0
    9.9469   -8.0373    0.0000 C   0  0  0  0  0  0  0  0  0  0  0  0
    8.5331   -8.5384    0.0000 C   0  0  0  0  0  0  0  0  0  0  0  0
    8.2674  -10.0147    0.0000 H   0  0  0  0  0  0  0  0  0  0  0  0
    7.4019   -7.5919    0.0000 C   0  0  0  0  0  0  0  0  0  0  0  0
    5.9948   -8.1116    0.0000 H   0  0  0  0  0  0  0  0  0  0  0  0
    7.6579   -6.0689    0.0000 C   0  0  0  0  0  0  0  0  0  0  0  0
    9.0717   -5.5678    0.0000 C   0  0  0  0  0  0  0  0  0  0  0  0
    9.3568   -4.0952    0.0000 H   0  0  0  0  0  0  0  0  0  0  0  0
   10.2296   -6.5897    0.0000 C   0  0  0  0  0  0  0  0  0  0  0  0
   11.6499   -6.1073    0.0000 H   0  0  0  0  0  0  0  0  0  0  0  0
    6.5090   -5.1045    0.0000 O   0  0  0  0  0  0  0  0  0  0  0  0
    5.0994   -5.6172    0.0000 C   0  0  0  0  0  0  0  0  0  0  0  0
    3.9501   -6.5812    0.0000 H   0  0  0  0  0  0  0  0  0  0  0  0
    5.8491   -6.9164    0.0000 H   0  0  0  0  0  0  0  0  0  0  0  0
    3.9505   -4.6528    0.0000 C   0  0  0  0  0  0  0  0  0  0  0  0
    5.0998   -3.6889    0.0000 H   0  0  0  0  0  0  0  0  0  0  0  0
    3.2008   -3.3536    0.0000 H   0  0  0  0  0  0  0  0  0  0  0  0
    2.0898   -5.3296    0.0000 N   0  0  0  0  0  0  0  0  0  0  0  0
   -0.1628   -7.2189    0.0000 C   0  0  0  0  0  0  0  0  0  0  0  0
    0.0973   -8.6962    0.0000 H   0  0  0  0  0  0  0  0  0  0  0  0
   -1.5725   -7.7316    0.0000 H   0  0  0  0  0  0  0  0  0  0  0  0
   -0.9125   -5.9197    0.0000 H   0  0  0  0  0  0  0  0  0  0  0  0
    2.8395   -6.6288    0.0000 C   0  0  0  0  0  0  0  0  0  0  0  0
    2.0892   -7.9277    0.0000 H   0  0  0  0  0  0  0  0  0  0  0  0
    3.9883   -7.5932    0.0000 H   0  0  0  0  0  0  0  0  0  0  0  0
    3.9888   -5.6649    0.0000 H   0  0  0  0  0  0  0  0  0  0  0  0
    0.2056   -3.7479    0.0000 C   0  0  0  0  0  0  0  0  0  0  0  0
   -0.5448   -5.0467    0.0000 H   0  0  0  0  0  0  0  0  0  0  0  0
   -1.2037   -3.2343    0.0000 C   0  0  0  0  0  0  0  0  0  0  0  0
   -1.4649   -4.7114    0.0000 H   0  0  0  0  0  0  0  0  0  0  0  0
   -1.4632   -1.7561    0.0000 C   0  0  0  0  0  0  0  0  0  0  0  0
   -2.8730   -2.2684    0.0000 H   0  0  0  0  0  0  0  0  0  0  0  0
   -0.3134   -0.7915    0.0000 C   0  0  0  0  0  0  0  0  0  0  0  0
   -1.4623    0.1729    0.0000 H   0  0  0  0  0  0  0  0  0  0  0  0
    1.0959   -1.3051    0.0000 C   0  0  0  0  0  0  0  0  0  0  0  0
    1.3572    0.1720    0.0000 H   0  0  0  0  0  0  0  0  0  0  0  0
    2.5959   -1.3061    0.0000 C   0  0  0  0  0  0  0  0  0  0  0  0
    3.3451   -2.6056    0.0000 O   0  0  0  0  0  0  0  0  0  0  0  0
    3.3468   -0.0075    0.0000 O   0  0  0  0  0  0  0  0  0  0  0  0
    2.5976    1.2920    0.0000 H   0  0  0  0  0  0  0  0  0  0  0  0
    1.3554   -2.7833    0.0000 O   0  0  0  0  0  0  0  0  0  0  0  0
    0.4370    0.5073    0.0000 O   0  0  0  0  0  0  0  0  0  0  0  0
   -0.3126    1.8066    0.0000 H   0  0  0  0  0  0  0  0  0  0  0  0
   -2.2128   -0.4568    0.0000 O   0  0  0  0  0  0  0  0  0  0  0  0
   -3.7128   -0.4563    0.0000 H   0  0  0  0  0  0  0  0  0  0  0  0
   -2.7037   -3.2333    0.0000 O   0  0  0  0  0  0  0  0  0  0  0  0
   -3.4545   -4.5319    0.0000 H   0  0  0  0  0  0  0  0  0  0  0  0
   13.9598   -7.5178    0.0000 C   0  0  0  0  0  0  0  0  0  0  0  0
   12.8228   -6.5382    0.0000 C   0  0  0  0  0  0  0  0  0  0  0  0
   11.4066   -7.0325    0.0000 H   0  0  0  0  0  0  0  0  0  0  0  0
   13.1030   -5.0646    0.0000 C   0  0  0  0  0  0  0  0  0  0  0  0
   11.9671   -4.0849    0.0000 H   0  0  0  0  0  0  0  0  0  0  0  0
   14.5202   -4.5707    0.0000 C   0  0  0  0  0  0  0  0  0  0  0  0
   14.8004   -3.0971    0.0000 H   0  0  0  0  0  0  0  0  0  0  0  0
   15.6572   -5.5503    0.0000 C   0  0  0  0  0  0  0  0  0  0  0  0
   17.0734   -5.0560    0.0000 H   0  0  0  0  0  0  0  0  0  0  0  0
   15.3770   -7.0239    0.0000 C   0  0  0  0  0  0  0  0  0  0  0  0
   16.5129   -8.0036    0.0000 H   0  0  0  0  0  0  0  0  0  0  0  0
  1  2  1  0  0  0  0 
  1  3  1  0  0  0  0 
  1  4  1  0  0  0  0 
  1  5  1  0  0  0  0 
  5  6  1  0  0  0  0 
  5  7  1  0  0  0  0 
  5  8  1  0  0  0  0 
  8  9  2  0  0  0  0 
  9 10  1  0  0  0  0 
 10 11  2  0  0  0  0 
 11 12  1  0  0  0  0 
 11 13  1  0  0  0  0 
 13 14  1  0  0  0  0 
 13 15  2  0  0  0  0 
 15 16  1  0  0  0  0 
 15 17  1  0  0  0  0 
 17 18  1  0  0  0  0 
 17 19  2  0  0  0  0 
 10 19  1  0  0  0  0 
 19 20  1  0  0  0  0 
  9 21  1  0  0  0  0 
 21 22  2  0  0  0  0 
 22 23  1  0  0  0  0 
 22 24  1  0  0  0  0 
 24 25  1  0  0  0  0 
 24 26  2  0  0  0  0 
 26 27  1  0  0  0  0 
 27 28  1  0  0  0  0 
 27 29  2  0  0  0  0 
 21 29  1  0  0  0  0 
 29 30  1  0  0  0  0 
 26 31  1  0  0  0  0 
 31 32  1  0  0  0  0 
 32 33  1  0  0  0  0 
 32 34  1  0  0  0  0 
 32 35  1  0  0  0  0 
 35 36  1  0  0  0  0 
 35 37  1  0  0  0  0 
 35 38  1  0  0  0  0 
 38 39  1  0  0  0  0 
 39 40  1  0  0  0  0 
 39 41  1  0  0  0  0 
 39 42  1  0  0  0  0 
 38 43  1  0  0  0  0 
 43 44  1  0  0  0  0 
 43 45  1  0  0  0  0 
 43 46  1  0  0  0  0 
 38 47  1  0  0  0  0 
 47 48  1  0  0  0  0 
 47 49  1  0  0  0  0 
 49 50  1  0  0  0  0 
 49 51  1  0  0  0  0 
 51 52  1  0  0  0  0 
 51 53  1  0  0  0  0 
 53 54  1  0  0  0  0 
 53 55  1  0  0  0  0 
 55 56  1  0  0  0  0 
 55 57  1  0  0  0  0 
 57 58  2  0  0  0  0 
 57 59  1  0  0  0  0 
 59 60  1  0  0  0  0 
 55 61  1  0  0  0  0 
 47 61  1  0  0  0  0 
 53 62  1  0  0  0  0 
 62 63  1  0  0  0  0 
 51 64  1  0  0  0  0 
 64 65  1  0  0  0  0 
 49 66  1  0  0  0  0 
 66 67  1  0  0  0  0 
  8 68  1  0  0  0  0 
 68 69  2  0  0  0  0 
 69 70  1  0  0  0  0 
 69 71  1  0  0  0  0 
 71 72  1  0  0  0  0 
 71 73  2  0  0  0  0 
 73 74  1  0  0  0  0 
 73 75  1  0  0  0  0 
 75 76  1  0  0  0  0 
 75 77  2  0  0  0  0 
 68 77  1  0  0  0  0 
 77 78  1  0  0  0  0 
M  CHG  1  38   1
M  END
> <Rank>
4

> <Priority_score>
0.708

> <Reaction_type>
N-glucuronidation_(N(CH3)2)

> <Parent_ID>
1

> <Parent_InChI>
InChI=1S/C26H29NO/c1-4-25(21-11-7-5-8-12-21)26(22-13-9-6-10-14-22)23-15-17-24(18-16-23)28-20-19-27(2)3/h5-18H,4,19-20H2,1-3H3

> <Parent_SMILES>
CC/C(=C(\C1=CC=CC=C1)/C2=CC=C(C=C2)OCCN(C)C)/C3=CC=CC=C3

$$$$
Molecule 1_metabolite 5
  CDK     0516241028

 58 60  0  0  0  0  0  0  0  0999 V2000
    8.0594    2.3781    0.0000 C   0  0  0  0  0  0  0  0  0  0  0  0
    9.3547    1.6217    0.0000 H   0  0  0  0  0  0  0  0  0  0  0  0
    9.0292    3.5224    0.0000 H   0  0  0  0  0  0  0  0  0  0  0  0
    7.1009    3.5319    0.0000 H   0  0  0  0  0  0  0  0  0  0  0  0
    6.7567    1.6345    0.0000 C   0  0  0  0  0  0  0  0  0  0  0  0
    5.7869    0.4902    0.0000 H   0  0  0  0  0  0  0  0  0  0  0  0
    7.7152    0.4807    0.0000 H   0  0  0  0  0  0  0  0  0  0  0  0
    5.4614    2.3909    0.0000 C   0  0  0  0  0  0  0  0  0  0  0  0
    3.7418    1.4094    0.0000 C   0  0  0  0  0  0  0  0  0  0  0  0
    3.7320   -0.5706    0.0000 C   0  0  0  0  0  0  0  0  0  0  0  0
    5.0311   -1.3206    0.0000 C   0  0  0  0  0  0  0  0  0  0  0  0
    6.3264   -0.5642    0.0000 H   0  0  0  0  0  0  0  0  0  0  0  0
    5.0456   -2.7955    0.0000 C   0  0  0  0  0  0  0  0  0  0  0  0
    6.3544   -3.5283    0.0000 H   0  0  0  0  0  0  0  0  0  0  0  0
    3.7211   -3.5896    0.0000 C   0  0  0  0  0  0  0  0  0  0  0  0
    2.4220   -2.8396    0.0000 C   0  0  0  0  0  0  0  0  0  0  0  0
    1.1168   -3.5789    0.0000 H   0  0  0  0  0  0  0  0  0  0  0  0
    2.4475   -1.2955    0.0000 C   0  0  0  0  0  0  0  0  0  0  0  0
    1.1585   -0.5284    0.0000 H   0  0  0  0  0  0  0  0  0  0  0  0
    3.7334   -5.0895    0.0000 O   0  0  0  0  0  0  0  0  0  0  0  0
    5.0386   -5.8288    0.0000 H   0  0  0  0  0  0  0  0  0  0  0  0
    1.6174    2.6498    0.0000 C   0  0  0  0  0  0  0  0  0  0  0  0
    0.3184    1.8998    0.0000 C   0  0  0  0  0  0  0  0  0  0  0  0
    0.3258    0.3999    0.0000 H   0  0  0  0  0  0  0  0  0  0  0  0
   -0.9661    2.6247    0.0000 C   0  0  0  0  0  0  0  0  0  0  0  0
   -2.2552    1.8576    0.0000 H   0  0  0  0  0  0  0  0  0  0  0  0
   -0.9916    4.1688    0.0000 C   0  0  0  0  0  0  0  0  0  0  0  0
    0.3074    4.9188    0.0000 C   0  0  0  0  0  0  0  0  0  0  0  0
    0.3198    6.4188    0.0000 H   0  0  0  0  0  0  0  0  0  0  0  0
    1.6319    4.1247    0.0000 C   0  0  0  0  0  0  0  0  0  0  0  0
    2.9407    4.8575    0.0000 H   0  0  0  0  0  0  0  0  0  0  0  0
   -2.2968    4.9081    0.0000 O   0  0  0  0  0  0  0  0  0  0  0  0
   -3.5896    4.1474    0.0000 C   0  0  0  0  0  0  0  0  0  0  0  0
   -4.5443    2.9904    0.0000 H   0  0  0  0  0  0  0  0  0  0  0  0
   -2.6160    3.0063    0.0000 H   0  0  0  0  0  0  0  0  0  0  0  0
   -4.8948    4.8866    0.0000 C   0  0  0  0  0  0  0  0  0  0  0  0
   -3.9401    6.0436    0.0000 H   0  0  0  0  0  0  0  0  0  0  0  0
   -5.8684    6.0277    0.0000 H   0  0  0  0  0  0  0  0  0  0  0  0
   -6.6013    3.8825    0.0000 N   0  0  0  0  0  0  0  0  0  0  0  0
   -7.9065    4.6218    0.0000 C   0  0  0  0  0  0  0  0  0  0  0  0
   -9.1993    3.8611    0.0000 H   0  0  0  0  0  0  0  0  0  0  0  0
   -6.9518    5.7788    0.0000 H   0  0  0  0  0  0  0  0  0  0  0  0
   -8.8801    5.7629    0.0000 H   0  0  0  0  0  0  0  0  0  0  0  0
   -6.5889    2.3826    0.0000 C   0  0  0  0  0  0  0  0  0  0  0  0
   -5.2837    1.6433    0.0000 H   0  0  0  0  0  0  0  0  0  0  0  0
   -7.0903    0.9689    0.0000 H   0  0  0  0  0  0  0  0  0  0  0  0
   -8.0682    2.6309    0.0000 H   0  0  0  0  0  0  0  0  0  0  0  0
    5.4687    3.8909    0.0000 C   0  0  0  0  0  0  0  0  0  0  0  0
    4.1724    4.6473    0.0000 C   0  0  0  0  0  0  0  0  0  0  0  0
    2.0362    3.4274    0.0000 H   0  0  0  0  0  0  0  0  0  0  0  0
    4.1798    6.1473    0.0000 C   0  0  0  0  0  0  0  0  0  0  0  0
    2.8846    6.9039    0.0000 H   0  0  0  0  0  0  0  0  0  0  0  0
    5.4835    6.8909    0.0000 C   0  0  0  0  0  0  0  0  0  0  0  0
    5.4909    8.3908    0.0000 H   0  0  0  0  0  0  0  0  0  0  0  0
    6.7798    6.1345    0.0000 C   0  0  0  0  0  0  0  0  0  0  0  0
    8.0824    6.8783    0.0000 H   0  0  0  0  0  0  0  0  0  0  0  0
    6.7724    4.6345    0.0000 C   0  0  0  0  0  0  0  0  0  0  0  0
    8.0676    3.8779    0.0000 H   0  0  0  0  0  0  0  0  0  0  0  0
  1  2  1  0  0  0  0 
  1  3  1  0  0  0  0 
  1  4  1  0  0  0  0 
  1  5  1  0  0  0  0 
  5  6  1  0  0  0  0 
  5  7  1  0  0  0  0 
  5  8  1  0  0  0  0 
  8  9  2  0  0  0  0 
  9 10  1  0  0  0  0 
 10 11  2  0  0  0  0 
 11 12  1  0  0  0  0 
 11 13  1  0  0  0  0 
 13 14  1  0  0  0  0 
 13 15  2  0  0  0  0 
 15 16  1  0  0  0  0 
 16 17  1  0  0  0  0 
 16 18  2  0  0  0  0 
 10 18  1  0  0  0  0 
 18 19  1  0  0  0  0 
 15 20  1  0  0  0  0 
 20 21  1  0  0  0  0 
  9 22  1  0  0  0  0 
 22 23  2  0  0  0  0 
 23 24  1  0  0  0  0 
 23 25  1  0  0  0  0 
 25 26  1  0  0  0  0 
 25 27  2  0  0  0  0 
 27 28  1  0  0  0  0 
 28 29  1  0  0  0  0 
 28 30  2  0  0  0  0 
 22 30  1  0  0  0  0 
 30 31  1  0  0  0  0 
 27 32  1  0  0  0  0 
 32 33  1  0  0  0  0 
 33 34  1  0  0  0  0 
 33 35  1  0  0  0  0 
 33 36  1  0  0  0  0 
 36 37  1  0  0  0  0 
 36 38  1  0  0  0  0 
 36 39  1  0  0  0  0 
 39 40  1  0  0  0  0 
 40 41  1  0  0  0  0 
 40 42  1  0  0  0  0 
 40 43  1  0  0  0  0 
 39 44  1  0  0  0  0 
 44 45  1  0  0  0  0 
 44 46  1  0  0  0  0 
 44 47  1  0  0  0  0 
  8 48  1  0  0  0  0 
 48 49  2  0  0  0  0 
 49 50  1  0  0  0  0 
 49 51  1  0  0  0  0 
 51 52  1  0  0  0  0 
 51 53  2  0  0  0  0 
 53 54  1  0  0  0  0 
 53 55  1  0  0  0  0 
 55 56  1  0  0  0  0 
 55 57  2  0  0  0  0 
 48 57  1  0  0  0  0 
 57 58  1  0  0  0  0 
M  END
> <Rank>
5

> <Priority_score>
0.6073090683848017

> <Reaction_type>
aromatic_hydroxylation_(para_to_carbon)

> <Parent_ID>
1

> <Parent_InChI>
InChI=1S/C26H29NO/c1-4-25(21-11-7-5-8-12-21)26(22-13-9-6-10-14-22)23-15-17-24(18-16-23)28-20-19-27(2)3/h5-18H,4,19-20H2,1-3H3

> <Parent_SMILES>
CC/C(=C(\C1=CC=CC=C1)/C2=CC=C(C=C2)OCCN(C)C)/C3=CC=CC=C3

$$$$
Molecule 1_metabolite 6
  CDK     0516241028

 62 64  0  0  0  0  0  0  0  0999 V2000
    8.3825    2.9377    0.0000 C   0  0  0  0  0  0  0  0  0  0  0  0
    9.6778    2.1814    0.0000 H   0  0  0  0  0  0  0  0  0  0  0  0
    9.3523    4.0820    0.0000 H   0  0  0  0  0  0  0  0  0  0  0  0
    7.4240    4.0915    0.0000 H   0  0  0  0  0  0  0  0  0  0  0  0
    7.0798    2.1941    0.0000 C   0  0  0  0  0  0  0  0  0  0  0  0
    6.1100    1.0498    0.0000 H   0  0  0  0  0  0  0  0  0  0  0  0
    8.0383    1.0403    0.0000 H   0  0  0  0  0  0  0  0  0  0  0  0
    5.7844    2.9505    0.0000 C   0  0  0  0  0  0  0  0  0  0  0  0
    4.0649    1.9690    0.0000 C   0  0  0  0  0  0  0  0  0  0  0  0
    1.9405    3.2095    0.0000 C   0  0  0  0  0  0  0  0  0  0  0  0
    0.6415    2.4595    0.0000 C   0  0  0  0  0  0  0  0  0  0  0  0
    0.6489    0.9595    0.0000 H   0  0  0  0  0  0  0  0  0  0  0  0
   -0.6430    3.1843    0.0000 C   0  0  0  0  0  0  0  0  0  0  0  0
   -1.9321    2.4173    0.0000 H   0  0  0  0  0  0  0  0  0  0  0  0
   -0.6685    4.7284    0.0000 C   0  0  0  0  0  0  0  0  0  0  0  0
    0.6305    5.4784    0.0000 C   0  0  0  0  0  0  0  0  0  0  0  0
    0.6429    6.9784    0.0000 H   0  0  0  0  0  0  0  0  0  0  0  0
    1.9550    4.6843    0.0000 C   0  0  0  0  0  0  0  0  0  0  0  0
    3.2638    5.4171    0.0000 H   0  0  0  0  0  0  0  0  0  0  0  0
   -1.9737    5.4677    0.0000 O   0  0  0  0  0  0  0  0  0  0  0  0
   -3.2665    4.7070    0.0000 C   0  0  0  0  0  0  0  0  0  0  0  0
   -4.2212    3.5500    0.0000 H   0  0  0  0  0  0  0  0  0  0  0  0
   -2.2929    3.5659    0.0000 H   0  0  0  0  0  0  0  0  0  0  0  0
   -4.5717    5.4463    0.0000 C   0  0  0  0  0  0  0  0  0  0  0  0
   -3.6170    6.6032    0.0000 H   0  0  0  0  0  0  0  0  0  0  0  0
   -5.5453    6.5873    0.0000 H   0  0  0  0  0  0  0  0  0  0  0  0
   -6.2782    4.4421    0.0000 N   0  0  0  0  0  0  0  0  0  0  0  0
   -7.5834    5.1814    0.0000 C   0  0  0  0  0  0  0  0  0  0  0  0
   -8.8762    4.4207    0.0000 H   0  0  0  0  0  0  0  0  0  0  0  0
   -6.6287    6.3384    0.0000 H   0  0  0  0  0  0  0  0  0  0  0  0
   -8.5570    6.3225    0.0000 H   0  0  0  0  0  0  0  0  0  0  0  0
   -6.2658    2.9422    0.0000 C   0  0  0  0  0  0  0  0  0  0  0  0
   -4.9606    2.2029    0.0000 H   0  0  0  0  0  0  0  0  0  0  0  0
   -6.7672    1.5285    0.0000 H   0  0  0  0  0  0  0  0  0  0  0  0
   -7.7451    3.1905    0.0000 H   0  0  0  0  0  0  0  0  0  0  0  0
    4.0551   -0.0110    0.0000 C   0  0  0  0  0  0  0  0  0  0  0  0
    2.7514   -0.7546    0.0000 C   0  0  0  0  0  0  0  0  0  0  0  0
    1.4562    0.0020    0.0000 H   0  0  0  0  0  0  0  0  0  0  0  0
    2.7441   -2.2546    0.0000 C   0  0  0  0  0  0  0  0  0  0  0  0
    1.4415   -2.9984    0.0000 H   0  0  0  0  0  0  0  0  0  0  0  0
    4.0404   -3.0110    0.0000 C   0  0  0  0  0  0  0  0  0  0  0  0
    5.3440   -2.2674    0.0000 C   0  0  0  0  0  0  0  0  0  0  0  0
    5.3514   -0.7674    0.0000 C   0  0  0  0  0  0  0  0  0  0  0  0
    6.6540   -0.0236    0.0000 H   0  0  0  0  0  0  0  0  0  0  0  0
    6.6392   -3.0240    0.0000 O   0  0  0  0  0  0  0  0  0  0  0  0
    6.6316   -4.5239    0.0000 C   0  0  0  0  0  0  0  0  0  0  0  0
    7.9268   -5.2805    0.0000 H   0  0  0  0  0  0  0  0  0  0  0  0
    5.1557   -4.2560    0.0000 H   0  0  0  0  0  0  0  0  0  0  0  0
    6.1114   -5.9309    0.0000 H   0  0  0  0  0  0  0  0  0  0  0  0
    4.0330   -4.5109    0.0000 O   0  0  0  0  0  0  0  0  0  0  0  0
    5.3283   -5.2673    0.0000 H   0  0  0  0  0  0  0  0  0  0  0  0
    5.7918    4.4505    0.0000 C   0  0  0  0  0  0  0  0  0  0  0  0
    4.4955    5.2069    0.0000 C   0  0  0  0  0  0  0  0  0  0  0  0
    2.3593    3.9871    0.0000 H   0  0  0  0  0  0  0  0  0  0  0  0
    4.5029    6.7069    0.0000 C   0  0  0  0  0  0  0  0  0  0  0  0
    3.2077    7.4635    0.0000 H   0  0  0  0  0  0  0  0  0  0  0  0
    5.8066    7.4505    0.0000 C   0  0  0  0  0  0  0  0  0  0  0  0
    5.8140    8.9505    0.0000 H   0  0  0  0  0  0  0  0  0  0  0  0
    7.1029    6.6941    0.0000 C   0  0  0  0  0  0  0  0  0  0  0  0
    8.4055    7.4379    0.0000 H   0  0  0  0  0  0  0  0  0  0  0  0
    7.0955    5.1941    0.0000 C   0  0  0  0  0  0  0  0  0  0  0  0
    8.3907    4.4375    0.0000 H   0  0  0  0  0  0  0  0  0  0  0  0
  1  2  1  0  0  0  0 
  1  3  1  0  0  0  0 
  1  4  1  0  0  0  0 
  1  5  1  0  0  0  0 
  5  6  1  0  0  0  0 
  5  7  1  0  0  0  0 
  5  8  1  0  0  0  0 
  8  9  2  0  0  0  0 
  9 10  1  0  0  0  0 
 10 11  2  0  0  0  0 
 11 12  1  0  0  0  0 
 11 13  1  0  0  0  0 
 13 14  1  0  0  0  0 
 13 15  2  0  0  0  0 
 15 16  1  0  0  0  0 
 16 17  1  0  0  0  0 
 16 18  2  0  0  0  0 
 10 18  1  0  0  0  0 
 18 19  1  0  0  0  0 
 15 20  1  0  0  0  0 
 20 21  1  0  0  0  0 
 21 22  1  0  0  0  0 
 21 23  1  0  0  0  0 
 21 24  1  0  0  0  0 
 24 25  1  0  0  0  0 
 24 26  1  0  0  0  0 
 24 27  1  0  0  0  0 
 27 28  1  0  0  0  0 
 28 29  1  0  0  0  0 
 28 30  1  0  0  0  0 
 28 31  1  0  0  0  0 
 27 32  1  0  0  0  0 
 32 33  1  0  0  0  0 
 32 34  1  0  0  0  0 
 32 35  1  0  0  0  0 
  9 36  1  0  0  0  0 
 36 37  2  0  0  0  0 
 37 38  1  0  0  0  0 
 37 39  1  0  0  0  0 
 39 40  1  0  0  0  0 
 39 41  2  0  0  0  0 
 41 42  1  0  0  0  0 
 42 43  2  0  0  0  0 
 36 43  1  0  0  0  0 
 43 44  1  0  0  0  0 
 42 45  1  0  0  0  0 
 45 46  1  0  0  0  0 
 46 47  1  0  0  0  0 
 46 48  1  0  0  0  0 
 46 49  1  0  0  0  0 
 41 50  1  0  0  0  0 
 50 51  1  0  0  0  0 
  8 52  1  0  0  0  0 
 52 53  2  0  0  0  0 
 53 54  1  0  0  0  0 
 53 55  1  0  0  0  0 
 55 56  1  0  0  0  0 
 55 57  2  0  0  0  0 
 57 58  1  0  0  0  0 
 57 59  1  0  0  0  0 
 59 60  1  0  0  0  0 
 59 61  2  0  0  0  0 
 52 61  1  0  0  0  0 
 61 62  1  0  0  0  0 
M  END
> <Rank>
5

> <Priority_score>
0.6073090683848017

> <Reaction_type>
aromatic_oxidation

> <Parent_ID>
1

> <Parent_InChI>
InChI=1S/C26H29NO/c1-4-25(21-11-7-5-8-12-21)26(22-13-9-6-10-14-22)23-15-17-24(18-16-23)28-20-19-27(2)3/h5-18H,4,19-20H2,1-3H3

> <Parent_SMILES>
CC/C(=C(\C1=CC=CC=C1)/C2=CC=C(C=C2)OCCN(C)C)/C3=CC=CC=C3

$$$$
Molecule 1_metabolite 7
  CDK     0516241028

 58 60  0  0  0  0  0  0  0  0999 V2000
   -1.4721   -4.0599    0.0000 C   0  0  0  0  0  0  0  0  0  0  0  0
   -2.7748   -4.8035    0.0000 H   0  0  0  0  0  0  0  0  0  0  0  0
   -0.9660   -5.4720    0.0000 H   0  0  0  0  0  0  0  0  0  0  0  0
    0.0064   -3.8067    0.0000 H   0  0  0  0  0  0  0  0  0  0  0  0
   -1.4647   -2.5599    0.0000 C   0  0  0  0  0  0  0  0  0  0  0  0
   -1.9708   -1.1479    0.0000 H   0  0  0  0  0  0  0  0  0  0  0  0
   -2.9432   -2.8131    0.0000 H   0  0  0  0  0  0  0  0  0  0  0  0
   -0.1620   -1.8163    0.0000 C   0  0  0  0  0  0  0  0  0  0  0  0
   -0.1522    0.1637    0.0000 C   0  0  0  0  0  0  0  0  0  0  0  0
    1.9842    1.3832    0.0000 C   0  0  0  0  0  0  0  0  0  0  0  0
    1.9842    2.8832    0.0000 C   0  0  0  0  0  0  0  0  0  0  0  0
    0.6815    3.6267    0.0000 H   0  0  0  0  0  0  0  0  0  0  0  0
    3.2542    3.6332    0.0000 C   0  0  0  0  0  0  0  0  0  0  0  0
    3.2345    5.1330    0.0000 H   0  0  0  0  0  0  0  0  0  0  0  0
    4.6042    2.8832    0.0000 C   0  0  0  0  0  0  0  0  0  0  0  0
    4.6042    1.3832    0.0000 C   0  0  0  0  0  0  0  0  0  0  0  0
    5.8970    0.6225    0.0000 H   0  0  0  0  0  0  0  0  0  0  0  0
    3.2542    0.6332    0.0000 C   0  0  0  0  0  0  0  0  0  0  0  0
    3.2345   -0.8667    0.0000 H   0  0  0  0  0  0  0  0  0  0  0  0
    5.8970    3.6438    0.0000 O   0  0  0  0  0  0  0  0  0  0  0  0
    5.8846    5.1438    0.0000 C   0  0  0  0  0  0  0  0  0  0  0  0
    5.3600    6.5490    0.0000 H   0  0  0  0  0  0  0  0  0  0  0  0
    4.4096    4.8711    0.0000 H   0  0  0  0  0  0  0  0  0  0  0  0
    7.1774    5.9045    0.0000 C   0  0  0  0  0  0  0  0  0  0  0  0
    7.7021    4.4992    0.0000 H   0  0  0  0  0  0  0  0  0  0  0  0
    8.6525    6.1771    0.0000 H   0  0  0  0  0  0  0  0  0  0  0  0
    7.1611    7.8844    0.0000 N   0  0  0  0  0  0  0  0  0  0  0  0
    8.4539    8.6451    0.0000 C   0  0  0  0  0  0  0  0  0  0  0  0
    8.4415   10.1451    0.0000 H   0  0  0  0  0  0  0  0  0  0  0  0
    8.9786    7.2398    0.0000 H   0  0  0  0  0  0  0  0  0  0  0  0
    9.9289    8.9178    0.0000 H   0  0  0  0  0  0  0  0  0  0  0  0
    5.8559    8.6237    0.0000 C   0  0  0  0  0  0  0  0  0  0  0  0
    4.5631    7.8630    0.0000 H   0  0  0  0  0  0  0  0  0  0  0  0
    4.8823    9.7647    0.0000 H   0  0  0  0  0  0  0  0  0  0  0  0
    6.8106    9.7807    0.0000 H   0  0  0  0  0  0  0  0  0  0  0  0
   -1.8621    1.1621    0.0000 C   0  0  0  0  0  0  0  0  0  0  0  0
   -1.8549    2.6629    0.0000 C   0  0  0  0  0  0  0  0  0  0  0  0
   -0.5533    3.4085    0.0000 H   0  0  0  0  0  0  0  0  0  0  0  0
   -3.1457    3.4116    0.0000 C   0  0  0  0  0  0  0  0  0  0  0  0
   -3.1403    4.9116    0.0000 H   0  0  0  0  0  0  0  0  0  0  0  0
   -4.4485    2.6682    0.0000 C   0  0  0  0  0  0  0  0  0  0  0  0
   -5.7426    3.4268    0.0000 H   0  0  0  0  0  0  0  0  0  0  0  0
   -4.4606    1.1761    0.0000 C   0  0  0  0  0  0  0  0  0  0  0  0
   -3.1649    0.4187    0.0000 C   0  0  0  0  0  0  0  0  0  0  0  0
   -3.1728   -1.0813    0.0000 H   0  0  0  0  0  0  0  0  0  0  0  0
   -5.7647    0.4349    0.0000 O   0  0  0  0  0  0  0  0  0  0  0  0
   -7.0586    1.1937    0.0000 H   0  0  0  0  0  0  0  0  0  0  0  0
    1.1333   -2.5727    0.0000 C   0  0  0  0  0  0  0  0  0  0  0  0
    2.4365   -1.8283    0.0000 C   0  0  0  0  0  0  0  0  0  0  0  0
    2.4483    0.6317    0.0000 H   0  0  0  0  0  0  0  0  0  0  0  0
    3.7319   -2.5847    0.0000 C   0  0  0  0  0  0  0  0  0  0  0  0
    5.0347   -1.8413    0.0000 H   0  0  0  0  0  0  0  0  0  0  0  0
    3.7240   -4.0855    0.0000 C   0  0  0  0  0  0  0  0  0  0  0  0
    5.0193   -4.8419    0.0000 H   0  0  0  0  0  0  0  0  0  0  0  0
    2.4208   -4.8299    0.0000 C   0  0  0  0  0  0  0  0  0  0  0  0
    2.4137   -6.3299    0.0000 H   0  0  0  0  0  0  0  0  0  0  0  0
    1.1255   -4.0735    0.0000 C   0  0  0  0  0  0  0  0  0  0  0  0
   -0.1774   -4.8169    0.0000 H   0  0  0  0  0  0  0  0  0  0  0  0
  1  2  1  0  0  0  0 
  1  3  1  0  0  0  0 
  1  4  1  0  0  0  0 
  1  5  1  0  0  0  0 
  5  6  1  0  0  0  0 
  5  7  1  0  0  0  0 
  5  8  1  0  0  0  0 
  8  9  2  0  0  0  0 
  9 10  1  0  0  0  0 
 10 11  2  0  0  0  0 
 11 12  1  0  0  0  0 
 11 13  1  0  0  0  0 
 13 14  1  0  0  0  0 
 13 15  2  0  0  0  0 
 15 16  1  0  0  0  0 
 16 17  1  0  0  0  0 
 16 18  2  0  0  0  0 
 10 18  1  0  0  0  0 
 18 19  1  0  0  0  0 
 15 20  1  0  0  0  0 
 20 21  1  0  0  0  0 
 21 22  1  0  0  0  0 
 21 23  1  0  0  0  0 
 21 24  1  0  0  0  0 
 24 25  1  0  0  0  0 
 24 26  1  0  0  0  0 
 24 27  1  0  0  0  0 
 27 28  1  0  0  0  0 
 28 29  1  0  0  0  0 
 28 30  1  0  0  0  0 
 28 31  1  0  0  0  0 
 27 32  1  0  0  0  0 
 32 33  1  0  0  0  0 
 32 34  1  0  0  0  0 
 32 35  1  0  0  0  0 
  9 36  1  0  0  0  0 
 36 37  2  0  0  0  0 
 37 38  1  0  0  0  0 
 37 39  1  0  0  0  0 
 39 40  1  0  0  0  0 
 39 41  2  0  0  0  0 
 41 42  1  0  0  0  0 
 41 43  1  0  0  0  0 
 43 44  2  0  0  0  0 
 36 44  1  0  0  0  0 
 44 45  1  0  0  0  0 
 43 46  1  0  0  0  0 
 46 47  1  0  0  0  0 
  8 48  1  0  0  0  0 
 48 49  2  0  0  0  0 
 49 50  1  0  0  0  0 
 49 51  1  0  0  0  0 
 51 52  1  0  0  0  0 
 51 53  2  0  0  0  0 
 53 54  1  0  0  0  0 
 53 55  1  0  0  0  0 
 55 56  1  0  0  0  0 
 55 57  2  0  0  0  0 
 48 57  1  0  0  0  0 
 57 58  1  0  0  0  0 
M  END
> <Rank>
5

> <Priority_score>
0.6073090683848017

> <Reaction_type>
aromatic_hydroxylation_(meta_to_carbon)

> <Parent_ID>
1

> <Parent_InChI>
InChI=1S/C26H29NO/c1-4-25(21-11-7-5-8-12-21)26(22-13-9-6-10-14-22)23-15-17-24(18-16-23)28-20-19-27(2)3/h5-18H,4,19-20H2,1-3H3

> <Parent_SMILES>
CC/C(=C(\C1=CC=CC=C1)/C2=CC=C(C=C2)OCCN(C)C)/C3=CC=CC=C3

$$$$
Molecule 1_metabolite 8
  CDK     0516241028

 58 60  0  0  0  0  0  0  0  0999 V2000
   -9.5559   -1.8886    0.0000 C   0  0  0  0  0  0  0  0  0  0  0  0
  -11.0559   -1.8886    0.0000 H   0  0  0  0  0  0  0  0  0  0  0  0
   -9.8163   -3.3659    0.0000 H   0  0  0  0  0  0  0  0  0  0  0  0
   -8.1463   -2.4017    0.0000 H   0  0  0  0  0  0  0  0  0  0  0  0
   -8.8059   -0.5896    0.0000 C   0  0  0  0  0  0  0  0  0  0  0  0
   -8.5454    0.8876    0.0000 H   0  0  0  0  0  0  0  0  0  0  0  0
  -10.2154   -0.0766    0.0000 H   0  0  0  0  0  0  0  0  0  0  0  0
   -7.3059   -0.5896    0.0000 C   0  0  0  0  0  0  0  0  0  0  0  0
   -6.3159    1.1251    0.0000 C   0  0  0  0  0  0  0  0  0  0  0  0
   -7.3059    2.8399    0.0000 C   0  0  0  0  0  0  0  0  0  0  0  0
   -6.5550    4.1394    0.0000 C   0  0  0  0  0  0  0  0  0  0  0  0
   -5.0550    4.1391    0.0000 H   0  0  0  0  0  0  0  0  0  0  0  0
   -7.3050    5.4384    0.0000 C   0  0  0  0  0  0  0  0  0  0  0  0
   -6.5553    6.7376    0.0000 H   0  0  0  0  0  0  0  0  0  0  0  0
   -8.8059    5.4379    0.0000 C   0  0  0  0  0  0  0  0  0  0  0  0
   -9.5559    6.7370    0.0000 H   0  0  0  0  0  0  0  0  0  0  0  0
   -9.5567    4.1384    0.0000 C   0  0  0  0  0  0  0  0  0  0  0  0
  -11.0567    4.1386    0.0000 H   0  0  0  0  0  0  0  0  0  0  0  0
   -8.8067    2.8394    0.0000 C   0  0  0  0  0  0  0  0  0  0  0  0
   -9.5565    1.5402    0.0000 H   0  0  0  0  0  0  0  0  0  0  0  0
   -3.8559    1.1251    0.0000 C   0  0  0  0  0  0  0  0  0  0  0  0
   -3.1123   -0.1776    0.0000 C   0  0  0  0  0  0  0  0  0  0  0  0
   -3.8750   -1.4692    0.0000 H   0  0  0  0  0  0  0  0  0  0  0  0
   -1.6375   -0.1994    0.0000 C   0  0  0  0  0  0  0  0  0  0  0  0
   -0.9111   -1.5118    0.0000 H   0  0  0  0  0  0  0  0  0  0  0  0
   -0.8369    1.1212    0.0000 C   0  0  0  0  0  0  0  0  0  0  0  0
   -1.5805    2.4239    0.0000 C   0  0  0  0  0  0  0  0  0  0  0  0
   -0.8348    3.7255    0.0000 H   0  0  0  0  0  0  0  0  0  0  0  0
   -3.1247    2.4061    0.0000 C   0  0  0  0  0  0  0  0  0  0  0  0
   -3.8854    3.6989    0.0000 H   0  0  0  0  0  0  0  0  0  0  0  0
    0.6630    1.1015    0.0000 O   0  0  0  0  0  0  0  0  0  0  0  0
    1.3958   -0.2073    0.0000 C   0  0  0  0  0  0  0  0  0  0  0  0
    1.6368   -1.6879    0.0000 H   0  0  0  0  0  0  0  0  0  0  0  0
   -0.0204   -0.7018    0.0000 H   0  0  0  0  0  0  0  0  0  0  0  0
    2.8957   -0.2271    0.0000 C   0  0  0  0  0  0  0  0  0  0  0  0
    2.6547    1.2534    0.0000 H   0  0  0  0  0  0  0  0  0  0  0  0
    4.3119    0.2673    0.0000 H   0  0  0  0  0  0  0  0  0  0  0  0
    3.8630   -1.9547    0.0000 N   0  0  0  0  0  0  0  0  0  0  0  0
    5.3629   -1.9745    0.0000 C   0  0  0  0  0  0  0  0  0  0  0  0
    6.0957   -3.2833    0.0000 H   0  0  0  0  0  0  0  0  0  0  0  0
    5.1219   -0.4940    0.0000 H   0  0  0  0  0  0  0  0  0  0  0  0
    6.7791   -1.4801    0.0000 H   0  0  0  0  0  0  0  0  0  0  0  0
    3.0960   -3.2438    0.0000 C   0  0  0  0  0  0  0  0  0  0  0  0
    1.5961   -3.2240    0.0000 H   0  0  0  0  0  0  0  0  0  0  0  0
    2.8161   -4.7174    0.0000 H   0  0  0  0  0  0  0  0  0  0  0  0
    4.4986   -3.7753    0.0000 H   0  0  0  0  0  0  0  0  0  0  0  0
   -6.5559   -1.8886    0.0000 C   0  0  0  0  0  0  0  0  0  0  0  0
   -5.0559   -1.8813    0.0000 C   0  0  0  0  0  0  0  0  0  0  0  0
   -3.8469    0.2612    0.0000 H   0  0  0  0  0  0  0  0  0  0  0  0
   -4.2997   -3.1476    0.0000 C   0  0  0  0  0  0  0  0  0  0  0  0
   -2.7999   -3.1204    0.0000 H   0  0  0  0  0  0  0  0  0  0  0  0
   -5.0430   -4.5012    0.0000 C   0  0  0  0  0  0  0  0  0  0  0  0
   -6.5430   -4.5086    0.0000 C   0  0  0  0  0  0  0  0  0  0  0  0
   -7.2973   -5.8051    0.0000 H   0  0  0  0  0  0  0  0  0  0  0  0
   -7.2996   -3.1623    0.0000 C   0  0  0  0  0  0  0  0  0  0  0  0
   -8.7996   -3.1499    0.0000 H   0  0  0  0  0  0  0  0  0  0  0  0
   -4.2760   -5.7903    0.0000 O   0  0  0  0  0  0  0  0  0  0  0  0
   -5.0088   -7.0991    0.0000 H   0  0  0  0  0  0  0  0  0  0  0  0
  1  2  1  0  0  0  0 
  1  3  1  0  0  0  0 
  1  4  1  0  0  0  0 
  1  5  1  0  0  0  0 
  5  6  1  0  0  0  0 
  5  7  1  0  0  0  0 
  5  8  1  0  0  0  0 
  8  9  2  0  0  0  0 
  9 10  1  0  0  0  0 
 10 11  2  0  0  0  0 
 11 12  1  0  0  0  0 
 11 13  1  0  0  0  0 
 13 14  1  0  0  0  0 
 13 15  2  0  0  0  0 
 15 16  1  0  0  0  0 
 15 17  1  0  0  0  0 
 17 18  1  0  0  0  0 
 17 19  2  0  0  0  0 
 10 19  1  0  0  0  0 
 19 20  1  0  0  0  0 
  9 21  1  0  0  0  0 
 21 22  2  0  0  0  0 
 22 23  1  0  0  0  0 
 22 24  1  0  0  0  0 
 24 25  1  0  0  0  0 
 24 26  2  0  0  0  0 
 26 27  1  0  0  0  0 
 27 28  1  0  0  0  0 
 27 29  2  0  0  0  0 
 21 29  1  0  0  0  0 
 29 30  1  0  0  0  0 
 26 31  1  0  0  0  0 
 31 32  1  0  0  0  0 
 32 33  1  0  0  0  0 
 32 34  1  0  0  0  0 
 32 35  1  0  0  0  0 
 35 36  1  0  0  0  0 
 35 37  1  0  0  0  0 
 35 38  1  0  0  0  0 
 38 39  1  0  0  0  0 
 39 40  1  0  0  0  0 
 39 41  1  0  0  0  0 
 39 42  1  0  0  0  0 
 38 43  1  0  0  0  0 
 43 44  1  0  0  0  0 
 43 45  1  0  0  0  0 
 43 46  1  0  0  0  0 
  8 47  1  0  0  0  0 
 47 48  2  0  0  0  0 
 48 49  1  0  0  0  0 
 48 50  1  0  0  0  0 
 50 51  1  0  0  0  0 
 50 52  2  0  0  0  0 
 52 53  1  0  0  0  0 
 53 54  1  0  0  0  0 
 53 55  2  0  0  0  0 
 47 55  1  0  0  0  0 
 55 56  1  0  0  0  0 
 52 57  1  0  0  0  0 
 57 58  1  0  0  0  0 
M  END
> <Rank>
8

> <Priority_score>
0.6070336760202313

> <Reaction_type>
aromatic_hydroxylation_(para_to_carbon)

> <Parent_ID>
1

> <Parent_InChI>
InChI=1S/C26H29NO/c1-4-25(21-11-7-5-8-12-21)26(22-13-9-6-10-14-22)23-15-17-24(18-16-23)28-20-19-27(2)3/h5-18H,4,19-20H2,1-3H3

> <Parent_SMILES>
CC/C(=C(\C1=CC=CC=C1)/C2=CC=C(C=C2)OCCN(C)C)/C3=CC=CC=C3

$$$$
Molecule 1_metabolite 9
  CDK     0516241028

 62 64  0  0  0  0  0  0  0  0999 V2000
   -8.2301    5.6605    0.0000 C   0  0  0  0  0  0  0  0  0  0  0  0
   -8.9801    6.9596    0.0000 H   0  0  0  0  0  0  0  0  0  0  0  0
   -9.6397    5.1475    0.0000 H   0  0  0  0  0  0  0  0  0  0  0  0
   -7.9697    4.1833    0.0000 H   0  0  0  0  0  0  0  0  0  0  0  0
   -6.7301    5.6605    0.0000 C   0  0  0  0  0  0  0  0  0  0  0  0
   -5.3206    6.1736    0.0000 H   0  0  0  0  0  0  0  0  0  0  0  0
   -6.9906    7.1378    0.0000 H   0  0  0  0  0  0  0  0  0  0  0  0
   -5.9801    4.3615    0.0000 C   0  0  0  0  0  0  0  0  0  0  0  0
   -4.0001    4.3615    0.0000 C   0  0  0  0  0  0  0  0  0  0  0  0
   -3.0101    6.0762    0.0000 C   0  0  0  0  0  0  0  0  0  0  0  0
   -1.5093    6.0758    0.0000 C   0  0  0  0  0  0  0  0  0  0  0  0
   -0.7595    4.7766    0.0000 H   0  0  0  0  0  0  0  0  0  0  0  0
   -0.7593    7.3748    0.0000 C   0  0  0  0  0  0  0  0  0  0  0  0
    0.7407    7.3750    0.0000 H   0  0  0  0  0  0  0  0  0  0  0  0
   -1.5101    8.6743    0.0000 C   0  0  0  0  0  0  0  0  0  0  0  0
   -0.7601    9.9734    0.0000 H   0  0  0  0  0  0  0  0  0  0  0  0
   -3.0110    8.6748    0.0000 C   0  0  0  0  0  0  0  0  0  0  0  0
   -3.7608    9.9740    0.0000 H   0  0  0  0  0  0  0  0  0  0  0  0
   -3.7610    7.3758    0.0000 C   0  0  0  0  0  0  0  0  0  0  0  0
   -5.2610    7.3755    0.0000 H   0  0  0  0  0  0  0  0  0  0  0  0
   -2.7701    2.2311    0.0000 C   0  0  0  0  0  0  0  0  0  0  0  0
   -1.2702    2.2385    0.0000 C   0  0  0  0  0  0  0  0  0  0  0  0
   -0.5330    3.5448    0.0000 H   0  0  0  0  0  0  0  0  0  0  0  0
   -0.5139    0.9722    0.0000 C   0  0  0  0  0  0  0  0  0  0  0  0
    0.9858    0.9993    0.0000 H   0  0  0  0  0  0  0  0  0  0  0  0
   -1.2573   -0.3815    0.0000 C   0  0  0  0  0  0  0  0  0  0  0  0
   -2.7572   -0.3889    0.0000 C   0  0  0  0  0  0  0  0  0  0  0  0
   -3.5116   -1.6854    0.0000 H   0  0  0  0  0  0  0  0  0  0  0  0
   -3.5139    0.9574    0.0000 C   0  0  0  0  0  0  0  0  0  0  0  0
   -5.0138    0.9698    0.0000 H   0  0  0  0  0  0  0  0  0  0  0  0
   -0.4902   -1.6705    0.0000 O   0  0  0  0  0  0  0  0  0  0  0  0
    1.0097   -1.6508    0.0000 C   0  0  0  0  0  0  0  0  0  0  0  0
    2.4123   -1.1192    0.0000 H   0  0  0  0  0  0  0  0  0  0  0  0
    0.7297   -0.1771    0.0000 H   0  0  0  0  0  0  0  0  0  0  0  0
    1.7767   -2.9398    0.0000 C   0  0  0  0  0  0  0  0  0  0  0  0
    0.3740   -3.4714    0.0000 H   0  0  0  0  0  0  0  0  0  0  0  0
    2.0566   -4.4135    0.0000 H   0  0  0  0  0  0  0  0  0  0  0  0
    3.7565   -2.9138    0.0000 N   0  0  0  0  0  0  0  0  0  0  0  0
    4.5236   -4.2028    0.0000 C   0  0  0  0  0  0  0  0  0  0  0  0
    6.0234   -4.1830    0.0000 H   0  0  0  0  0  0  0  0  0  0  0  0
    3.1209   -4.7344    0.0000 H   0  0  0  0  0  0  0  0  0  0  0  0
    4.8035   -5.6765    0.0000 H   0  0  0  0  0  0  0  0  0  0  0  0
    4.4893   -1.6050    0.0000 C   0  0  0  0  0  0  0  0  0  0  0  0
    3.7223   -0.3159    0.0000 H   0  0  0  0  0  0  0  0  0  0  0  0
    5.6256   -0.6257    0.0000 H   0  0  0  0  0  0  0  0  0  0  0  0
    5.6510   -2.5539    0.0000 H   0  0  0  0  0  0  0  0  0  0  0  0
   -6.7301    3.0625    0.0000 C   0  0  0  0  0  0  0  0  0  0  0  0
   -5.9793    1.7629    0.0000 C   0  0  0  0  0  0  0  0  0  0  0  0
   -3.5193    1.7633    0.0000 H   0  0  0  0  0  0  0  0  0  0  0  0
   -6.7293    0.4639    0.0000 C   0  0  0  0  0  0  0  0  0  0  0  0
   -5.9795   -0.8352    0.0000 H   0  0  0  0  0  0  0  0  0  0  0  0
   -8.2301    0.4644    0.0000 C   0  0  0  0  0  0  0  0  0  0  0  0
   -8.9810    1.7639    0.0000 C   0  0  0  0  0  0  0  0  0  0  0  0
   -8.2310    3.0629    0.0000 C   0  0  0  0  0  0  0  0  0  0  0  0
   -8.9808    4.3621    0.0000 H   0  0  0  0  0  0  0  0  0  0  0  0
  -10.4810    1.7637    0.0000 O   0  0  0  0  0  0  0  0  0  0  0  0
  -11.2308    0.4645    0.0000 C   0  0  0  0  0  0  0  0  0  0  0  0
  -12.7308    0.4643    0.0000 H   0  0  0  0  0  0  0  0  0  0  0  0
   -9.8211   -0.0483    0.0000 H   0  0  0  0  0  0  0  0  0  0  0  0
  -11.4910   -1.0127    0.0000 H   0  0  0  0  0  0  0  0  0  0  0  0
   -8.9801   -0.8346    0.0000 O   0  0  0  0  0  0  0  0  0  0  0  0
   -8.2301   -2.1337    0.0000 H   0  0  0  0  0  0  0  0  0  0  0  0
  1  2  1  0  0  0  0 
  1  3  1  0  0  0  0 
  1  4  1  0  0  0  0 
  1  5  1  0  0  0  0 
  5  6  1  0  0  0  0 
  5  7  1  0  0  0  0 
  5  8  1  0  0  0  0 
  8  9  2  0  0  0  0 
  9 10  1  0  0  0  0 
 10 11  2  0  0  0  0 
 11 12  1  0  0  0  0 
 11 13  1  0  0  0  0 
 13 14  1  0  0  0  0 
 13 15  2  0  0  0  0 
 15 16  1  0  0  0  0 
 15 17  1  0  0  0  0 
 17 18  1  0  0  0  0 
 17 19  2  0  0  0  0 
 10 19  1  0  0  0  0 
 19 20  1  0  0  0  0 
  9 21  1  0  0  0  0 
 21 22  2  0  0  0  0 
 22 23  1  0  0  0  0 
 22 24  1  0  0  0  0 
 24 25  1  0  0  0  0 
 24 26  2  0  0  0  0 
 26 27  1  0  0  0  0 
 27 28  1  0  0  0  0 
 27 29  2  0  0  0  0 
 21 29  1  0  0  0  0 
 29 30  1  0  0  0  0 
 26 31  1  0  0  0  0 
 31 32  1  0  0  0  0 
 32 33  1  0  0  0  0 
 32 34  1  0  0  0  0 
 32 35  1  0  0  0  0 
 35 36  1  0  0  0  0 
 35 37  1  0  0  0  0 
 35 38  1  0  0  0  0 
 38 39  1  0  0  0  0 
 39 40  1  0  0  0  0 
 39 41  1  0  0  0  0 
 39 42  1  0  0  0  0 
 38 43  1  0  0  0  0 
 43 44  1  0  0  0  0 
 43 45  1  0  0  0  0 
 43 46  1  0  0  0  0 
  8 47  1  0  0  0  0 
 47 48  2  0  0  0  0 
 48 49  1  0  0  0  0 
 48 50  1  0  0  0  0 
 50 51  1  0  0  0  0 
 50 52  2  0  0  0  0 
 52 53  1  0  0  0  0 
 53 54  2  0  0  0  0 
 47 54  1  0  0  0  0 
 54 55  1  0  0  0  0 
 53 56  1  0  0  0  0 
 56 57  1  0  0  0  0 
 57 58  1  0  0  0  0 
 57 59  1  0  0  0  0 
 57 60  1  0  0  0  0 
 52 61  1  0  0  0  0 
 61 62  1  0  0  0  0 
M  END
> <Rank>
8

> <Priority_score>
0.6070336760202313

> <Reaction_type>
aromatic_oxidation

> <Parent_ID>
1

> <Parent_InChI>
InChI=1S/C26H29NO/c1-4-25(21-11-7-5-8-12-21)26(22-13-9-6-10-14-22)23-15-17-24(18-16-23)28-20-19-27(2)3/h5-18H,4,19-20H2,1-3H3

> <Parent_SMILES>
CC/C(=C(\C1=CC=CC=C1)/C2=CC=C(C=C2)OCCN(C)C)/C3=CC=CC=C3

$$$$
Molecule 1_metabolite 10
  CDK     0516241028

 58 60  0  0  0  0  0  0  0  0999 V2000
   -8.1423    5.3371    0.0000 C   0  0  0  0  0  0  0  0  0  0  0  0
   -8.8923    6.6362    0.0000 H   0  0  0  0  0  0  0  0  0  0  0  0
   -9.5518    4.8241    0.0000 H   0  0  0  0  0  0  0  0  0  0  0  0
   -7.8818    3.8599    0.0000 H   0  0  0  0  0  0  0  0  0  0  0  0
   -6.6423    5.3371    0.0000 C   0  0  0  0  0  0  0  0  0  0  0  0
   -5.2328    5.8502    0.0000 H   0  0  0  0  0  0  0  0  0  0  0  0
   -6.9028    6.8144    0.0000 H   0  0  0  0  0  0  0  0  0  0  0  0
   -5.8923    4.0381    0.0000 C   0  0  0  0  0  0  0  0  0  0  0  0
   -3.9123    4.0381    0.0000 C   0  0  0  0  0  0  0  0  0  0  0  0
   -2.9223    5.7528    0.0000 C   0  0  0  0  0  0  0  0  0  0  0  0
   -1.4215    5.7524    0.0000 C   0  0  0  0  0  0  0  0  0  0  0  0
   -0.6717    4.4532    0.0000 H   0  0  0  0  0  0  0  0  0  0  0  0
   -0.6715    7.0514    0.0000 C   0  0  0  0  0  0  0  0  0  0  0  0
    0.8285    7.0516    0.0000 H   0  0  0  0  0  0  0  0  0  0  0  0
   -1.4223    8.3509    0.0000 C   0  0  0  0  0  0  0  0  0  0  0  0
   -0.6723    9.6500    0.0000 H   0  0  0  0  0  0  0  0  0  0  0  0
   -2.9231    8.3514    0.0000 C   0  0  0  0  0  0  0  0  0  0  0  0
   -3.6729    9.6506    0.0000 H   0  0  0  0  0  0  0  0  0  0  0  0
   -3.6731    7.0524    0.0000 C   0  0  0  0  0  0  0  0  0  0  0  0
   -5.1731    7.0521    0.0000 H   0  0  0  0  0  0  0  0  0  0  0  0
   -2.6823    1.9077    0.0000 C   0  0  0  0  0  0  0  0  0  0  0  0
   -1.1823    1.9151    0.0000 C   0  0  0  0  0  0  0  0  0  0  0  0
   -0.4452    3.2214    0.0000 H   0  0  0  0  0  0  0  0  0  0  0  0
   -0.4261    0.6488    0.0000 C   0  0  0  0  0  0  0  0  0  0  0  0
    1.0737    0.6759    0.0000 H   0  0  0  0  0  0  0  0  0  0  0  0
   -1.1694   -0.7049    0.0000 C   0  0  0  0  0  0  0  0  0  0  0  0
   -2.6694   -0.7123    0.0000 C   0  0  0  0  0  0  0  0  0  0  0  0
   -3.4237   -2.0088    0.0000 H   0  0  0  0  0  0  0  0  0  0  0  0
   -3.4260    0.6340    0.0000 C   0  0  0  0  0  0  0  0  0  0  0  0
   -4.9260    0.6464    0.0000 H   0  0  0  0  0  0  0  0  0  0  0  0
   -0.4024   -1.9939    0.0000 O   0  0  0  0  0  0  0  0  0  0  0  0
    1.0975   -1.9742    0.0000 C   0  0  0  0  0  0  0  0  0  0  0  0
    2.5001   -1.4426    0.0000 H   0  0  0  0  0  0  0  0  0  0  0  0
    0.8176   -0.5005    0.0000 H   0  0  0  0  0  0  0  0  0  0  0  0
    1.8645   -3.2632    0.0000 C   0  0  0  0  0  0  0  0  0  0  0  0
    0.4619   -3.7948    0.0000 H   0  0  0  0  0  0  0  0  0  0  0  0
    2.1444   -4.7369    0.0000 H   0  0  0  0  0  0  0  0  0  0  0  0
    3.8444   -3.2372    0.0000 N   0  0  0  0  0  0  0  0  0  0  0  0
    4.6114   -4.5262    0.0000 C   0  0  0  0  0  0  0  0  0  0  0  0
    6.1113   -4.5064    0.0000 H   0  0  0  0  0  0  0  0  0  0  0  0
    3.2087   -5.0578    0.0000 H   0  0  0  0  0  0  0  0  0  0  0  0
    4.8913   -5.9999    0.0000 H   0  0  0  0  0  0  0  0  0  0  0  0
    4.5772   -1.9284    0.0000 C   0  0  0  0  0  0  0  0  0  0  0  0
    3.8101   -0.6393    0.0000 H   0  0  0  0  0  0  0  0  0  0  0  0
    5.7134   -0.9491    0.0000 H   0  0  0  0  0  0  0  0  0  0  0  0
    5.7388   -2.8773    0.0000 H   0  0  0  0  0  0  0  0  0  0  0  0
   -6.6423    2.7391    0.0000 C   0  0  0  0  0  0  0  0  0  0  0  0
   -5.8921    1.4392    0.0000 C   0  0  0  0  0  0  0  0  0  0  0  0
   -3.4321    1.4355    0.0000 H   0  0  0  0  0  0  0  0  0  0  0  0
   -6.6419    0.1491    0.0000 C   0  0  0  0  0  0  0  0  0  0  0  0
   -5.8937   -1.1510    0.0000 H   0  0  0  0  0  0  0  0  0  0  0  0
   -8.1419    0.1488    0.0000 C   0  0  0  0  0  0  0  0  0  0  0  0
   -8.8897   -1.1515    0.0000 H   0  0  0  0  0  0  0  0  0  0  0  0
   -8.8921    1.4387    0.0000 C   0  0  0  0  0  0  0  0  0  0  0  0
   -8.1423    2.7388    0.0000 C   0  0  0  0  0  0  0  0  0  0  0  0
   -8.8927    4.0376    0.0000 H   0  0  0  0  0  0  0  0  0  0  0  0
  -10.3921    1.4360    0.0000 O   0  0  0  0  0  0  0  0  0  0  0  0
  -11.1397    0.1355    0.0000 H   0  0  0  0  0  0  0  0  0  0  0  0
  1  2  1  0  0  0  0 
  1  3  1  0  0  0  0 
  1  4  1  0  0  0  0 
  1  5  1  0  0  0  0 
  5  6  1  0  0  0  0 
  5  7  1  0  0  0  0 
  5  8  1  0  0  0  0 
  8  9  2  0  0  0  0 
  9 10  1  0  0  0  0 
 10 11  2  0  0  0  0 
 11 12  1  0  0  0  0 
 11 13  1  0  0  0  0 
 13 14  1  0  0  0  0 
 13 15  2  0  0  0  0 
 15 16  1  0  0  0  0 
 15 17  1  0  0  0  0 
 17 18  1  0  0  0  0 
 17 19  2  0  0  0  0 
 10 19  1  0  0  0  0 
 19 20  1  0  0  0  0 
  9 21  1  0  0  0  0 
 21 22  2  0  0  0  0 
 22 23  1  0  0  0  0 
 22 24  1  0  0  0  0 
 24 25  1  0  0  0  0 
 24 26  2  0  0  0  0 
 26 27  1  0  0  0  0 
 27 28  1  0  0  0  0 
 27 29  2  0  0  0  0 
 21 29  1  0  0  0  0 
 29 30  1  0  0  0  0 
 26 31  1  0  0  0  0 
 31 32  1  0  0  0  0 
 32 33  1  0  0  0  0 
 32 34  1  0  0  0  0 
 32 35  1  0  0  0  0 
 35 36  1  0  0  0  0 
 35 37  1  0  0  0  0 
 35 38  1  0  0  0  0 
 38 39  1  0  0  0  0 
 39 40  1  0  0  0  0 
 39 41  1  0  0  0  0 
 39 42  1  0  0  0  0 
 38 43  1  0  0  0  0 
 43 44  1  0  0  0  0 
 43 45  1  0  0  0  0 
 43 46  1  0  0  0  0 
  8 47  1  0  0  0  0 
 47 48  2  0  0  0  0 
 48 49  1  0  0  0  0 
 48 50  1  0  0  0  0 
 50 51  1  0  0  0  0 
 50 52  2  0  0  0  0 
 52 53  1  0  0  0  0 
 52 54  1  0  0  0  0 
 54 55  2  0  0  0  0 
 47 55  1  0  0  0  0 
 55 56  1  0  0  0  0 
 54 57  1  0  0  0  0 
 57 58  1  0  0  0  0 
M  END
> <Rank>
8

> <Priority_score>
0.6070336760202313

> <Reaction_type>
aromatic_hydroxylation_(meta_to_carbon)

> <Parent_ID>
1

> <Parent_InChI>
InChI=1S/C26H29NO/c1-4-25(21-11-7-5-8-12-21)26(22-13-9-6-10-14-22)23-15-17-24(18-16-23)28-20-19-27(2)3/h5-18H,4,19-20H2,1-3H3

> <Parent_SMILES>
CC/C(=C(\C1=CC=CC=C1)/C2=CC=C(C=C2)OCCN(C)C)/C3=CC=CC=C3

$$$$
Molecule 1_metabolite 11
  CDK     0516241028

 50 52  0  0  0  0  0  0  0  0999 V2000
   -8.7874    1.6665    0.0000 C   0  0  0  0  0  0  0  0  0  0  0  0
  -10.0864    2.4165    0.0000 H   0  0  0  0  0  0  0  0  0  0  0  0
   -9.7516    0.5174    0.0000 H   0  0  0  0  0  0  0  0  0  0  0  0
   -7.8232    0.5174    0.0000 H   0  0  0  0  0  0  0  0  0  0  0  0
   -7.4884    2.4165    0.0000 C   0  0  0  0  0  0  0  0  0  0  0  0
   -6.5242    3.5656    0.0000 H   0  0  0  0  0  0  0  0  0  0  0  0
   -8.4525    3.5656    0.0000 H   0  0  0  0  0  0  0  0  0  0  0  0
   -6.1893    1.6665    0.0000 C   0  0  0  0  0  0  0  0  0  0  0  0
   -4.4746    2.6565    0.0000 C   0  0  0  0  0  0  0  0  0  0  0  0
   -4.4746    4.6365    0.0000 C   0  0  0  0  0  0  0  0  0  0  0  0
   -3.1746    5.3865    0.0000 C   0  0  0  0  0  0  0  0  0  0  0  0
   -1.8757    4.6363    0.0000 H   0  0  0  0  0  0  0  0  0  0  0  0
   -3.1746    6.8865    0.0000 C   0  0  0  0  0  0  0  0  0  0  0  0
   -1.8757    7.6367    0.0000 H   0  0  0  0  0  0  0  0  0  0  0  0
   -4.4746    7.6365    0.0000 C   0  0  0  0  0  0  0  0  0  0  0  0
   -4.4746    9.1365    0.0000 H   0  0  0  0  0  0  0  0  0  0  0  0
   -5.7746    6.8865    0.0000 C   0  0  0  0  0  0  0  0  0  0  0  0
   -7.0735    7.6367    0.0000 H   0  0  0  0  0  0  0  0  0  0  0  0
   -5.7746    5.3865    0.0000 C   0  0  0  0  0  0  0  0  0  0  0  0
   -7.0735    4.6363    0.0000 H   0  0  0  0  0  0  0  0  0  0  0  0
   -2.3442    1.4265    0.0000 C   0  0  0  0  0  0  0  0  0  0  0  0
   -1.0488    2.1829    0.0000 C   0  0  0  0  0  0  0  0  0  0  0  0
   -1.0636    3.6828    0.0000 H   0  0  0  0  0  0  0  0  0  0  0  0
    0.2392    1.4644    0.0000 C   0  0  0  0  0  0  0  0  0  0  0  0
    1.5245    2.2378    0.0000 H   0  0  0  0  0  0  0  0  0  0  0  0
    0.2723   -0.0796    0.0000 C   0  0  0  0  0  0  0  0  0  0  0  0
   -1.0230   -0.8360    0.0000 C   0  0  0  0  0  0  0  0  0  0  0  0
   -1.0280   -2.3360    0.0000 H   0  0  0  0  0  0  0  0  0  0  0  0
   -2.3514   -0.0484    0.0000 C   0  0  0  0  0  0  0  0  0  0  0  0
   -3.6566   -0.7877    0.0000 H   0  0  0  0  0  0  0  0  0  0  0  0
    1.5811   -0.8124    0.0000 O   0  0  0  0  0  0  0  0  0  0  0  0
    2.8702   -0.0454    0.0000 C   0  0  0  0  0  0  0  0  0  0  0  0
    3.8191    1.1163    0.0000 H   0  0  0  0  0  0  0  0  0  0  0  0
    1.8909    1.0909    0.0000 H   0  0  0  0  0  0  0  0  0  0  0  0
    4.1790   -0.7782    0.0000 C   0  0  0  0  0  0  0  0  0  0  0  0
    3.2300   -1.9399    0.0000 H   0  0  0  0  0  0  0  0  0  0  0  0
    5.1582   -1.9145    0.0000 H   0  0  0  0  0  0  0  0  0  0  0  0
    5.4680   -0.0112    0.0000 O   0  0  0  0  0  0  0  0  0  0  0  0
    6.7768   -0.7440    0.0000 H   0  0  0  0  0  0  0  0  0  0  0  0
   -6.1893    0.1665    0.0000 C   0  0  0  0  0  0  0  0  0  0  0  0
   -4.8893   -0.5835    0.0000 C   0  0  0  0  0  0  0  0  0  0  0  0
   -2.7591    0.6469    0.0000 H   0  0  0  0  0  0  0  0  0  0  0  0
   -4.8893   -2.0835    0.0000 C   0  0  0  0  0  0  0  0  0  0  0  0
   -3.5904   -2.8337    0.0000 H   0  0  0  0  0  0  0  0  0  0  0  0
   -6.1893   -2.8335    0.0000 C   0  0  0  0  0  0  0  0  0  0  0  0
   -6.1893   -4.3335    0.0000 H   0  0  0  0  0  0  0  0  0  0  0  0
   -7.4893   -2.0835    0.0000 C   0  0  0  0  0  0  0  0  0  0  0  0
   -8.7882   -2.8337    0.0000 H   0  0  0  0  0  0  0  0  0  0  0  0
   -7.4893   -0.5835    0.0000 C   0  0  0  0  0  0  0  0  0  0  0  0
   -8.7882    0.1667    0.0000 H   0  0  0  0  0  0  0  0  0  0  0  0
  1  2  1  0  0  0  0 
  1  3  1  0  0  0  0 
  1  4  1  0  0  0  0 
  1  5  1  0  0  0  0 
  5  6  1  0  0  0  0 
  5  7  1  0  0  0  0 
  5  8  1  0  0  0  0 
  8  9  2  0  0  0  0 
  9 10  1  0  0  0  0 
 10 11  2  0  0  0  0 
 11 12  1  0  0  0  0 
 11 13  1  0  0  0  0 
 13 14  1  0  0  0  0 
 13 15  2  0  0  0  0 
 15 16  1  0  0  0  0 
 15 17  1  0  0  0  0 
 17 18  1  0  0  0  0 
 17 19  2  0  0  0  0 
 10 19  1  0  0  0  0 
 19 20  1  0  0  0  0 
  9 21  1  0  0  0  0 
 21 22  2  0  0  0  0 
 22 23  1  0  0  0  0 
 22 24  1  0  0  0  0 
 24 25  1  0  0  0  0 
 24 26  2  0  0  0  0 
 26 27  1  0  0  0  0 
 27 28  1  0  0  0  0 
 27 29  2  0  0  0  0 
 21 29  1  0  0  0  0 
 29 30  1  0  0  0  0 
 26 31  1  0  0  0  0 
 31 32  1  0  0  0  0 
 32 33  1  0  0  0  0 
 32 34  1  0  0  0  0 
 32 35  1  0  0  0  0 
 35 36  1  0  0  0  0 
 35 37  1  0  0  0  0 
 35 38  1  0  0  0  0 
 38 39  1  0  0  0  0 
  8 40  1  0  0  0  0 
 40 41  2  0  0  0  0 
 41 42  1  0  0  0  0 
 41 43  1  0  0  0  0 
 43 44  1  0  0  0  0 
 43 45  2  0  0  0  0 
 45 46  1  0  0  0  0 
 45 47  1  0  0  0  0 
 47 48  1  0  0  0  0 
 47 49  2  0  0  0  0 
 40 49  1  0  0  0  0 
 49 50  1  0  0  0  0 
M  END
> <Rank>
11

> <Priority_score>
0.512

> <Reaction_type>
N-dealkylation_(tertiaryN-CH2-alkyl)

> <Parent_ID>
1

> <Parent_InChI>
InChI=1S/C26H29NO/c1-4-25(21-11-7-5-8-12-21)26(22-13-9-6-10-14-22)23-15-17-24(18-16-23)28-20-19-27(2)3/h5-18H,4,19-20H2,1-3H3

> <Parent_SMILES>
CC/C(=C(\C1=CC=CC=C1)/C2=CC=C(C=C2)OCCN(C)C)/C3=CC=CC=C3

$$$$
Molecule 1_metabolite 12
  CDK     0516241028

 10  9  0  0  0  0  0  0  0  0999 V2000
    2.7109   -0.6849    0.0000 C   0  0  0  0  0  0  0  0  0  0  0  0
    1.4118   -1.4349    0.0000 H   0  0  0  0  0  0  0  0  0  0  0  0
    3.2239   -2.0944    0.0000 H   0  0  0  0  0  0  0  0  0  0  0  0
    4.1881   -0.4244    0.0000 H   0  0  0  0  0  0  0  0  0  0  0  0
    2.7109    0.8151    0.0000 N   0  0  0  0  0  0  0  0  0  0  0  0
    4.0099    1.5651    0.0000 H   0  0  0  0  0  0  0  0  0  0  0  0
    1.4118    1.5651    0.0000 C   0  0  0  0  0  0  0  0  0  0  0  0
    1.4118    3.0651    0.0000 H   0  0  0  0  0  0  0  0  0  0  0  0
    0.8988    0.1556    0.0000 H   0  0  0  0  0  0  0  0  0  0  0  0
   -0.0654    1.8256    0.0000 H   0  0  0  0  0  0  0  0  0  0  0  0
  1  2  1  0  0  0  0 
  1  3  1  0  0  0  0 
  1  4  1  0  0  0  0 
  1  5  1  0  0  0  0 
  5  6  1  0  0  0  0 
  5  7  1  0  0  0  0 
  7  8  1  0  0  0  0 
  7  9  1  0  0  0  0 
  7 10  1  0  0  0  0 
M  END
> <Rank>
11

> <Priority_score>
0.512

> <Reaction_type>
N-dealkylation_(tertiaryN-CH2-alkyl)

> <Parent_ID>
1

> <Parent_InChI>
InChI=1S/C26H29NO/c1-4-25(21-11-7-5-8-12-21)26(22-13-9-6-10-14-22)23-15-17-24(18-16-23)28-20-19-27(2)3/h5-18H,4,19-20H2,1-3H3

> <Parent_SMILES>
CC/C(=C(\C1=CC=CC=C1)/C2=CC=C(C=C2)OCCN(C)C)/C3=CC=CC=C3

$$$$
Molecule 1_metabolite 13
  CDK     0516241028

 48 50  0  0  0  0  0  0  0  0999 V2000
   -8.1527    2.0329    0.0000 C   0  0  0  0  0  0  0  0  0  0  0  0
   -9.4518    2.7829    0.0000 H   0  0  0  0  0  0  0  0  0  0  0  0
   -9.1169    0.8839    0.0000 H   0  0  0  0  0  0  0  0  0  0  0  0
   -7.1886    0.8839    0.0000 H   0  0  0  0  0  0  0  0  0  0  0  0
   -6.8537    2.7829    0.0000 C   0  0  0  0  0  0  0  0  0  0  0  0
   -5.8895    3.9320    0.0000 H   0  0  0  0  0  0  0  0  0  0  0  0
   -7.8179    3.9320    0.0000 H   0  0  0  0  0  0  0  0  0  0  0  0
   -5.5547    2.0329    0.0000 C   0  0  0  0  0  0  0  0  0  0  0  0
   -3.8399    3.0229    0.0000 C   0  0  0  0  0  0  0  0  0  0  0  0
   -3.8399    5.0029    0.0000 C   0  0  0  0  0  0  0  0  0  0  0  0
   -2.5399    5.7529    0.0000 C   0  0  0  0  0  0  0  0  0  0  0  0
   -1.2410    5.0027    0.0000 H   0  0  0  0  0  0  0  0  0  0  0  0
   -2.5399    7.2529    0.0000 C   0  0  0  0  0  0  0  0  0  0  0  0
   -1.2410    8.0031    0.0000 H   0  0  0  0  0  0  0  0  0  0  0  0
   -3.8399    8.0029    0.0000 C   0  0  0  0  0  0  0  0  0  0  0  0
   -3.8399    9.5029    0.0000 H   0  0  0  0  0  0  0  0  0  0  0  0
   -5.1399    7.2529    0.0000 C   0  0  0  0  0  0  0  0  0  0  0  0
   -6.4389    8.0031    0.0000 H   0  0  0  0  0  0  0  0  0  0  0  0
   -5.1399    5.7529    0.0000 C   0  0  0  0  0  0  0  0  0  0  0  0
   -6.4389    5.0027    0.0000 H   0  0  0  0  0  0  0  0  0  0  0  0
   -1.7095    1.7929    0.0000 C   0  0  0  0  0  0  0  0  0  0  0  0
   -0.4142    2.5493    0.0000 C   0  0  0  0  0  0  0  0  0  0  0  0
   -0.4290    4.0492    0.0000 H   0  0  0  0  0  0  0  0  0  0  0  0
    0.8739    1.8308    0.0000 C   0  0  0  0  0  0  0  0  0  0  0  0
    2.1591    2.6042    0.0000 H   0  0  0  0  0  0  0  0  0  0  0  0
    0.9070    0.2868    0.0000 C   0  0  0  0  0  0  0  0  0  0  0  0
   -0.3884   -0.4696    0.0000 C   0  0  0  0  0  0  0  0  0  0  0  0
   -0.3934   -1.9696    0.0000 H   0  0  0  0  0  0  0  0  0  0  0  0
   -1.7168    0.3180    0.0000 C   0  0  0  0  0  0  0  0  0  0  0  0
   -3.0220   -0.4212    0.0000 H   0  0  0  0  0  0  0  0  0  0  0  0
    2.2158   -0.4460    0.0000 O   0  0  0  0  0  0  0  0  0  0  0  0
    3.5048    0.3210    0.0000 C   0  0  0  0  0  0  0  0  0  0  0  0
    4.4538    1.4827    0.0000 H   0  0  0  0  0  0  0  0  0  0  0  0
    2.5256    1.4573    0.0000 H   0  0  0  0  0  0  0  0  0  0  0  0
    4.8136   -0.4118    0.0000 C   0  0  0  0  0  0  0  0  0  0  0  0
    6.1027    0.3552    0.0000 H   0  0  0  0  0  0  0  0  0  0  0  0
    4.8334   -1.9117    0.0000 O   0  0  0  0  0  0  0  0  0  0  0  0
   -5.5547    0.5329    0.0000 C   0  0  0  0  0  0  0  0  0  0  0  0
   -4.2547   -0.2171    0.0000 C   0  0  0  0  0  0  0  0  0  0  0  0
   -2.1244    1.0133    0.0000 H   0  0  0  0  0  0  0  0  0  0  0  0
   -4.2547   -1.7171    0.0000 C   0  0  0  0  0  0  0  0  0  0  0  0
   -2.9558   -2.4673    0.0000 H   0  0  0  0  0  0  0  0  0  0  0  0
   -5.5547   -2.4671    0.0000 C   0  0  0  0  0  0  0  0  0  0  0  0
   -5.5547   -3.9671    0.0000 H   0  0  0  0  0  0  0  0  0  0  0  0
   -6.8547   -1.7171    0.0000 C   0  0  0  0  0  0  0  0  0  0  0  0
   -8.1536   -2.4673    0.0000 H   0  0  0  0  0  0  0  0  0  0  0  0
   -6.8547   -0.2171    0.0000 C   0  0  0  0  0  0  0  0  0  0  0  0
   -8.1536    0.5331    0.0000 H   0  0  0  0  0  0  0  0  0  0  0  0
  1  2  1  0  0  0  0 
  1  3  1  0  0  0  0 
  1  4  1  0  0  0  0 
  1  5  1  0  0  0  0 
  5  6  1  0  0  0  0 
  5  7  1  0  0  0  0 
  5  8  1  0  0  0  0 
  8  9  2  0  0  0  0 
  9 10  1  0  0  0  0 
 10 11  2  0  0  0  0 
 11 12  1  0  0  0  0 
 11 13  1  0  0  0  0 
 13 14  1  0  0  0  0 
 13 15  2  0  0  0  0 
 15 16  1  0  0  0  0 
 15 17  1  0  0  0  0 
 17 18  1  0  0  0  0 
 17 19  2  0  0  0  0 
 10 19  1  0  0  0  0 
 19 20  1  0  0  0  0 
  9 21  1  0  0  0  0 
 21 22  2  0  0  0  0 
 22 23  1  0  0  0  0 
 22 24  1  0  0  0  0 
 24 25  1  0  0  0  0 
 24 26  2  0  0  0  0 
 26 27  1  0  0  0  0 
 27 28  1  0  0  0  0 
 27 29  2  0  0  0  0 
 21 29  1  0  0  0  0 
 29 30  1  0  0  0  0 
 26 31  1  0  0  0  0 
 31 32  1  0  0  0  0 
 32 33  1  0  0  0  0 
 32 34  1  0  0  0  0 
 32 35  1  0  0  0  0 
 35 36  1  0  0  0  0 
 35 37  2  0  0  0  0 
  8 38  1  0  0  0  0 
 38 39  2  0  0  0  0 
 39 40  1  0  0  0  0 
 39 41  1  0  0  0  0 
 41 42  1  0  0  0  0 
 41 43  2  0  0  0  0 
 43 44  1  0  0  0  0 
 43 45  1  0  0  0  0 
 45 46  1  0  0  0  0 
 45 47  2  0  0  0  0 
 38 47  1  0  0  0  0 
 47 48  1  0  0  0  0 
M  END
> <Rank>
11

> <Priority_score>
0.512

> <Reaction_type>
N-dealkylation

> <Parent_ID>
1

> <Parent_InChI>
InChI=1S/C26H29NO/c1-4-25(21-11-7-5-8-12-21)26(22-13-9-6-10-14-22)23-15-17-24(18-16-23)28-20-19-27(2)3/h5-18H,4,19-20H2,1-3H3

> <Parent_SMILES>
CC/C(=C(\C1=CC=CC=C1)/C2=CC=C(C=C2)OCCN(C)C)/C3=CC=CC=C3

$$$$
Molecule 1_metabolite 14
  CDK     0516241028

 56 58  0  0  0  0  0  0  0  0999 V2000
   -7.5907    4.8507    0.0000 C   0  0  0  0  0  0  0  0  0  0  0  0
   -8.3407    6.1497    0.0000 H   0  0  0  0  0  0  0  0  0  0  0  0
   -9.0002    4.3376    0.0000 H   0  0  0  0  0  0  0  0  0  0  0  0
   -7.3302    3.3734    0.0000 H   0  0  0  0  0  0  0  0  0  0  0  0
   -6.0907    4.8507    0.0000 C   0  0  0  0  0  0  0  0  0  0  0  0
   -4.6812    5.3637    0.0000 H   0  0  0  0  0  0  0  0  0  0  0  0
   -6.3512    6.3279    0.0000 H   0  0  0  0  0  0  0  0  0  0  0  0
   -5.3407    3.5516    0.0000 C   0  0  0  0  0  0  0  0  0  0  0  0
   -3.3607    3.5516    0.0000 C   0  0  0  0  0  0  0  0  0  0  0  0
   -2.3707    5.2664    0.0000 C   0  0  0  0  0  0  0  0  0  0  0  0
   -0.8699    5.2659    0.0000 C   0  0  0  0  0  0  0  0  0  0  0  0
   -0.1201    3.9667    0.0000 H   0  0  0  0  0  0  0  0  0  0  0  0
   -0.1199    6.5649    0.0000 C   0  0  0  0  0  0  0  0  0  0  0  0
    1.3801    6.5651    0.0000 H   0  0  0  0  0  0  0  0  0  0  0  0
   -0.8707    7.8644    0.0000 C   0  0  0  0  0  0  0  0  0  0  0  0
   -0.1207    9.1635    0.0000 H   0  0  0  0  0  0  0  0  0  0  0  0
   -2.3715    7.8649    0.0000 C   0  0  0  0  0  0  0  0  0  0  0  0
   -3.1213    9.1641    0.0000 H   0  0  0  0  0  0  0  0  0  0  0  0
   -3.1215    6.5659    0.0000 C   0  0  0  0  0  0  0  0  0  0  0  0
   -4.6215    6.5656    0.0000 H   0  0  0  0  0  0  0  0  0  0  0  0
   -2.1307    1.4212    0.0000 C   0  0  0  0  0  0  0  0  0  0  0  0
   -0.6307    1.4286    0.0000 C   0  0  0  0  0  0  0  0  0  0  0  0
    0.1065    2.7349    0.0000 H   0  0  0  0  0  0  0  0  0  0  0  0
    0.1255    0.1623    0.0000 C   0  0  0  0  0  0  0  0  0  0  0  0
    1.6253    0.1894    0.0000 H   0  0  0  0  0  0  0  0  0  0  0  0
   -0.6178   -1.1914    0.0000 C   0  0  0  0  0  0  0  0  0  0  0  0
   -2.1178   -1.1988    0.0000 C   0  0  0  0  0  0  0  0  0  0  0  0
   -2.8721   -2.4953    0.0000 H   0  0  0  0  0  0  0  0  0  0  0  0
   -2.8744    0.1475    0.0000 C   0  0  0  0  0  0  0  0  0  0  0  0
   -4.3744    0.1599    0.0000 H   0  0  0  0  0  0  0  0  0  0  0  0
    0.1492   -2.4804    0.0000 O   0  0  0  0  0  0  0  0  0  0  0  0
    1.6491   -2.4607    0.0000 C   0  0  0  0  0  0  0  0  0  0  0  0
    3.0518   -1.9291    0.0000 H   0  0  0  0  0  0  0  0  0  0  0  0
    1.3692   -0.9870    0.0000 H   0  0  0  0  0  0  0  0  0  0  0  0
    2.4161   -3.7497    0.0000 C   0  0  0  0  0  0  0  0  0  0  0  0
    1.0135   -4.2813    0.0000 H   0  0  0  0  0  0  0  0  0  0  0  0
    2.6961   -5.2234    0.0000 H   0  0  0  0  0  0  0  0  0  0  0  0
    3.9160   -3.7300    0.0000 N   0  0  0  0  0  0  0  0  0  0  0  0
    4.6488   -2.4212    0.0000 C   0  0  0  0  0  0  0  0  0  0  0  0
    6.1487   -2.4014    0.0000 H   0  0  0  0  0  0  0  0  0  0  0  0
    3.8818   -1.1321    0.0000 H   0  0  0  0  0  0  0  0  0  0  0  0
    4.6831   -5.0190    0.0000 C   0  0  0  0  0  0  0  0  0  0  0  0
    3.9502   -6.3278    0.0000 H   0  0  0  0  0  0  0  0  0  0  0  0
    5.8193   -4.0398    0.0000 H   0  0  0  0  0  0  0  0  0  0  0  0
    5.8447   -5.9680    0.0000 H   0  0  0  0  0  0  0  0  0  0  0  0
   -6.0907    2.2526    0.0000 C   0  0  0  0  0  0  0  0  0  0  0  0
   -5.3399    0.9531    0.0000 C   0  0  0  0  0  0  0  0  0  0  0  0
   -2.8799    0.9535    0.0000 H   0  0  0  0  0  0  0  0  0  0  0  0
   -6.0899   -0.3460    0.0000 C   0  0  0  0  0  0  0  0  0  0  0  0
   -5.3401   -1.6451    0.0000 H   0  0  0  0  0  0  0  0  0  0  0  0
   -7.5907   -0.3455    0.0000 C   0  0  0  0  0  0  0  0  0  0  0  0
   -8.3407   -1.6445    0.0000 H   0  0  0  0  0  0  0  0  0  0  0  0
   -8.3415    0.9540    0.0000 C   0  0  0  0  0  0  0  0  0  0  0  0
   -9.8415    0.9538    0.0000 H   0  0  0  0  0  0  0  0  0  0  0  0
   -7.5915    2.2531    0.0000 C   0  0  0  0  0  0  0  0  0  0  0  0
   -8.3413    3.5522    0.0000 H   0  0  0  0  0  0  0  0  0  0  0  0
  1  2  1  0  0  0  0 
  1  3  1  0  0  0  0 
  1  4  1  0  0  0  0 
  1  5  1  0  0  0  0 
  5  6  1  0  0  0  0 
  5  7  1  0  0  0  0 
  5  8  1  0  0  0  0 
  8  9  2  0  0  0  0 
  9 10  1  0  0  0  0 
 10 11  2  0  0  0  0 
 11 12  1  0  0  0  0 
 11 13  1  0  0  0  0 
 13 14  1  0  0  0  0 
 13 15  2  0  0  0  0 
 15 16  1  0  0  0  0 
 15 17  1  0  0  0  0 
 17 18  1  0  0  0  0 
 17 19  2  0  0  0  0 
 10 19  1  0  0  0  0 
 19 20  1  0  0  0  0 
  9 21  1  0  0  0  0 
 21 22  2  0  0  0  0 
 22 23  1  0  0  0  0 
 22 24  1  0  0  0  0 
 24 25  1  0  0  0  0 
 24 26  2  0  0  0  0 
 26 27  1  0  0  0  0 
 27 28  1  0  0  0  0 
 27 29  2  0  0  0  0 
 21 29  1  0  0  0  0 
 29 30  1  0  0  0  0 
 26 31  1  0  0  0  0 
 31 32  1  0  0  0  0 
 32 33  1  0  0  0  0 
 32 34  1  0  0  0  0 
 32 35  1  0  0  0  0 
 35 36  1  0  0  0  0 
 35 37  1  0  0  0  0 
 35 38  1  0  0  0  0 
 38 39  2  0  0  0  0 
 39 40  1  0  0  0  0 
 39 41  1  0  0  0  0 
 38 42  1  0  0  0  0 
 42 43  1  0  0  0  0 
 42 44  1  0  0  0  0 
 42 45  1  0  0  0  0 
  8 46  1  0  0  0  0 
 46 47  2  0  0  0  0 
 47 48  1  0  0  0  0 
 47 49  1  0  0  0  0 
 49 50  1  0  0  0  0 
 49 51  2  0  0  0  0 
 51 52  1  0  0  0  0 
 51 53  1  0  0  0  0 
 53 54  1  0  0  0  0 
 53 55  2  0  0  0  0 
 46 55  1  0  0  0  0 
 55 56  1  0  0  0  0 
M  CHG  1  38   1
M  END
> <Rank>
14

> <Priority_score>
0.15280000000000002

> <Reaction_type>
dehydration of N-C bond

> <Parent_ID>
1

> <Parent_InChI>
InChI=1S/C26H29NO/c1-4-25(21-11-7-5-8-12-21)26(22-13-9-6-10-14-22)23-15-17-24(18-16-23)28-20-19-27(2)3/h5-18H,4,19-20H2,1-3H3

> <Parent_SMILES>
CC/C(=C(\C1=CC=CC=C1)/C2=CC=C(C=C2)OCCN(C)C)/C3=CC=CC=C3

$$$$
Molecule 1_metabolite 15
  CDK     0516241028

 55 57  0  0  0  0  0  0  0  0999 V2000
    6.9565   -2.7887    0.0000 C   0  0  0  0  0  0  0  0  0  0  0  0
    8.2555   -3.5387    0.0000 H   0  0  0  0  0  0  0  0  0  0  0  0
    6.9565   -1.2887    0.0000 H   0  0  0  0  0  0  0  0  0  0  0  0
    5.6574   -3.5387    0.0000 C   0  0  0  0  0  0  0  0  0  0  0  0
    5.6574   -5.0387    0.0000 H   0  0  0  0  0  0  0  0  0  0  0  0
    3.5270   -2.3087    0.0000 C   0  0  0  0  0  0  0  0  0  0  0  0
    1.8123   -3.2987    0.0000 C   0  0  0  0  0  0  0  0  0  0  0  0
    1.8123   -5.7587    0.0000 C   0  0  0  0  0  0  0  0  0  0  0  0
    0.5123   -6.5087    0.0000 C   0  0  0  0  0  0  0  0  0  0  0  0
   -1.6179   -5.2784    0.0000 H   0  0  0  0  0  0  0  0  0  0  0  0
    0.5123   -8.0087    0.0000 C   0  0  0  0  0  0  0  0  0  0  0  0
   -0.7866   -8.7589    0.0000 H   0  0  0  0  0  0  0  0  0  0  0  0
    1.8123   -8.7587    0.0000 C   0  0  0  0  0  0  0  0  0  0  0  0
    1.8123  -10.2587    0.0000 H   0  0  0  0  0  0  0  0  0  0  0  0
    3.1123   -8.0087    0.0000 C   0  0  0  0  0  0  0  0  0  0  0  0
    4.4112   -8.7589    0.0000 H   0  0  0  0  0  0  0  0  0  0  0  0
    3.1123   -6.5087    0.0000 C   0  0  0  0  0  0  0  0  0  0  0  0
    4.4112   -5.7585    0.0000 H   0  0  0  0  0  0  0  0  0  0  0  0
    0.5132   -2.5487    0.0000 C   0  0  0  0  0  0  0  0  0  0  0  0
   -0.7821   -3.3051    0.0000 C   0  0  0  0  0  0  0  0  0  0  0  0
   -0.7673   -4.8050    0.0000 H   0  0  0  0  0  0  0  0  0  0  0  0
   -2.0702   -2.5866    0.0000 C   0  0  0  0  0  0  0  0  0  0  0  0
   -3.3554   -3.3599    0.0000 H   0  0  0  0  0  0  0  0  0  0  0  0
   -2.1032   -1.0426    0.0000 C   0  0  0  0  0  0  0  0  0  0  0  0
   -0.8079   -0.2862    0.0000 C   0  0  0  0  0  0  0  0  0  0  0  0
   -0.8029    1.2138    0.0000 H   0  0  0  0  0  0  0  0  0  0  0  0
    0.5205   -1.0738    0.0000 C   0  0  0  0  0  0  0  0  0  0  0  0
    1.9998   -0.8255    0.0000 H   0  0  0  0  0  0  0  0  0  0  0  0
   -3.4120   -0.3098    0.0000 O   0  0  0  0  0  0  0  0  0  0  0  0
   -4.7011   -1.0768    0.0000 C   0  0  0  0  0  0  0  0  0  0  0  0
   -5.6500   -2.2385    0.0000 H   0  0  0  0  0  0  0  0  0  0  0  0
   -3.7219   -2.2131    0.0000 H   0  0  0  0  0  0  0  0  0  0  0  0
   -6.0099   -0.3440    0.0000 C   0  0  0  0  0  0  0  0  0  0  0  0
   -5.0609    0.8177    0.0000 H   0  0  0  0  0  0  0  0  0  0  0  0
   -6.9891    0.7923    0.0000 H   0  0  0  0  0  0  0  0  0  0  0  0
   -7.7114   -1.3565    0.0000 N   0  0  0  0  0  0  0  0  0  0  0  0
   -9.0202   -0.6237    0.0000 C   0  0  0  0  0  0  0  0  0  0  0  0
  -10.3093   -1.3907    0.0000 H   0  0  0  0  0  0  0  0  0  0  0  0
   -8.0713    0.5380    0.0000 H   0  0  0  0  0  0  0  0  0  0  0  0
   -9.9995    0.5126    0.0000 H   0  0  0  0  0  0  0  0  0  0  0  0
   -7.6917   -2.8563    0.0000 C   0  0  0  0  0  0  0  0  0  0  0  0
   -6.3829   -3.5892    0.0000 H   0  0  0  0  0  0  0  0  0  0  0  0
   -8.1861   -4.2725    0.0000 H   0  0  0  0  0  0  0  0  0  0  0  0
   -9.1722   -2.6154    0.0000 H   0  0  0  0  0  0  0  0  0  0  0  0
    3.5270   -0.3287    0.0000 C   0  0  0  0  0  0  0  0  0  0  0  0
    2.2270    0.4213    0.0000 C   0  0  0  0  0  0  0  0  0  0  0  0
    0.9281   -0.3289    0.0000 H   0  0  0  0  0  0  0  0  0  0  0  0
    2.2270    1.9213    0.0000 C   0  0  0  0  0  0  0  0  0  0  0  0
    0.9281    2.6715    0.0000 H   0  0  0  0  0  0  0  0  0  0  0  0
    3.5270    2.6713    0.0000 C   0  0  0  0  0  0  0  0  0  0  0  0
    3.5270    4.1713    0.0000 H   0  0  0  0  0  0  0  0  0  0  0  0
    4.8270    1.9213    0.0000 C   0  0  0  0  0  0  0  0  0  0  0  0
    6.1259    2.6715    0.0000 H   0  0  0  0  0  0  0  0  0  0  0  0
    4.8270    0.4213    0.0000 C   0  0  0  0  0  0  0  0  0  0  0  0
    6.1259   -0.3289    0.0000 H   0  0  0  0  0  0  0  0  0  0  0  0
  1  2  1  0  0  0  0 
  1  3  1  0  0  0  0 
  1  4  2  0  0  0  0 
  4  5  1  0  0  0  0 
  4  6  1  0  0  0  0 
  6  7  2  0  0  0  0 
  7  8  1  0  0  0  0 
  8  9  2  0  0  0  0 
  9 10  1  0  0  0  0 
  9 11  1  0  0  0  0 
 11 12  1  0  0  0  0 
 11 13  2  0  0  0  0 
 13 14  1  0  0  0  0 
 13 15  1  0  0  0  0 
 15 16  1  0  0  0  0 
 15 17  2  0  0  0  0 
  8 17  1  0  0  0  0 
 17 18  1  0  0  0  0 
  7 19  1  0  0  0  0 
 19 20  2  0  0  0  0 
 20 21  1  0  0  0  0 
 20 22  1  0  0  0  0 
 22 23  1  0  0  0  0 
 22 24  2  0  0  0  0 
 24 25  1  0  0  0  0 
 25 26  1  0  0  0  0 
 25 27  2  0  0  0  0 
 19 27  1  0  0  0  0 
 27 28  1  0  0  0  0 
 24 29  1  0  0  0  0 
 29 30  1  0  0  0  0 
 30 31  1  0  0  0  0 
 30 32  1  0  0  0  0 
 30 33  1  0  0  0  0 
 33 34  1  0  0  0  0 
 33 35  1  0  0  0  0 
 33 36  1  0  0  0  0 
 36 37  1  0  0  0  0 
 37 38  1  0  0  0  0 
 37 39  1  0  0  0  0 
 37 40  1  0  0  0  0 
 36 41  1  0  0  0  0 
 41 42  1  0  0  0  0 
 41 43  1  0  0  0  0 
 41 44  1  0  0  0  0 
  6 45  1  0  0  0  0 
 45 46  2  0  0  0  0 
 46 47  1  0  0  0  0 
 46 48  1  0  0  0  0 
 48 49  1  0  0  0  0 
 48 50  2  0  0  0  0 
 50 51  1  0  0  0  0 
 50 52  1  0  0  0  0 
 52 53  1  0  0  0  0 
 52 54  2  0  0  0  0 
 45 54  1  0  0  0  0 
 54 55  1  0  0  0  0 
M  END
> <Rank>
15

> <Priority_score>
0.152

> <Reaction_type>
dehydrogenation_(CH2-CH3->C=CH2)

> <Parent_ID>
1

> <Parent_InChI>
InChI=1S/C26H29NO/c1-4-25(21-11-7-5-8-12-21)26(22-13-9-6-10-14-22)23-15-17-24(18-16-23)28-20-19-27(2)3/h5-18H,4,19-20H2,1-3H3

> <Parent_SMILES>
CC/C(=C(\C1=CC=CC=C1)/C2=CC=C(C=C2)OCCN(C)C)/C3=CC=CC=C3

$$$$
Molecule 1_metabolite 16
  CDK     0516241028

 57 59  0  0  0  0  0  0  0  0999 V2000
   -8.6346   -1.0642    0.0000 C   0  0  0  0  0  0  0  0  0  0  0  0
   -8.6223   -2.5641    0.0000 H   0  0  0  0  0  0  0  0  0  0  0  0
  -10.1097   -1.3368    0.0000 H   0  0  0  0  0  0  0  0  0  0  0  0
   -9.1593    0.3411    0.0000 H   0  0  0  0  0  0  0  0  0  0  0  0
   -7.3418   -0.3035    0.0000 N   0  0  0  0  0  0  0  0  0  0  0  0
   -7.3582    1.6765    0.0000 C   0  0  0  0  0  0  0  0  0  0  0  0
   -6.0654    2.4371    0.0000 H   0  0  0  0  0  0  0  0  0  0  0  0
   -8.8332    1.4038    0.0000 H   0  0  0  0  0  0  0  0  0  0  0  0
   -7.8828    3.0817    0.0000 H   0  0  0  0  0  0  0  0  0  0  0  0
   -6.0367   -1.0427    0.0000 C   0  0  0  0  0  0  0  0  0  0  0  0
   -6.9913   -2.1997    0.0000 H   0  0  0  0  0  0  0  0  0  0  0  0
   -5.0630   -2.1838    0.0000 H   0  0  0  0  0  0  0  0  0  0  0  0
   -4.7439   -0.2820    0.0000 C   0  0  0  0  0  0  0  0  0  0  0  0
   -3.7892    0.8749    0.0000 H   0  0  0  0  0  0  0  0  0  0  0  0
   -5.7175    0.8590    0.0000 H   0  0  0  0  0  0  0  0  0  0  0  0
   -3.4387   -1.0213    0.0000 O   0  0  0  0  0  0  0  0  0  0  0  0
   -2.1459   -0.2606    0.0000 C   0  0  0  0  0  0  0  0  0  0  0  0
   -0.7959   -1.0106    0.0000 C   0  0  0  0  0  0  0  0  0  0  0  0
   -0.7761   -2.5105    0.0000 H   0  0  0  0  0  0  0  0  0  0  0  0
    0.4741   -0.2606    0.0000 C   0  0  0  0  0  0  0  0  0  0  0  0
    1.7768   -1.0042    0.0000 H   0  0  0  0  0  0  0  0  0  0  0  0
    0.4741    1.2394    0.0000 C   0  0  0  0  0  0  0  0  0  0  0  0
   -0.7959    1.9894    0.0000 C   0  0  0  0  0  0  0  0  0  0  0  0
   -0.7761    3.4893    0.0000 H   0  0  0  0  0  0  0  0  0  0  0  0
   -2.1459    1.2394    0.0000 C   0  0  0  0  0  0  0  0  0  0  0  0
   -3.4387    2.0001    0.0000 H   0  0  0  0  0  0  0  0  0  0  0  0
    1.7768    1.9830    0.0000 C   0  0  0  0  0  0  0  0  0  0  0  0
    3.4867    0.9846    0.0000 C   0  0  0  0  0  0  0  0  0  0  0  0
    4.7894    1.7282    0.0000 C   0  0  0  0  0  0  0  0  0  0  0  0
    5.7592    2.8725    0.0000 H   0  0  0  0  0  0  0  0  0  0  0  0
    3.8309    2.8820    0.0000 H   0  0  0  0  0  0  0  0  0  0  0  0
    7.3282    0.2456    0.0000 C   0  0  0  0  0  0  0  0  0  0  0  0
    7.3209   -1.2543    0.0000 O   0  0  0  0  0  0  0  0  0  0  0  0
    8.6310    0.9892    0.0000 O   0  0  0  0  0  0  0  0  0  0  0  0
    9.9263    0.2329    0.0000 H   0  0  0  0  0  0  0  0  0  0  0  0
    3.4746   -1.4754    0.0000 C   0  0  0  0  0  0  0  0  0  0  0  0
    4.7709   -2.2318    0.0000 C   0  0  0  0  0  0  0  0  0  0  0  0
    6.0735   -1.4880    0.0000 H   0  0  0  0  0  0  0  0  0  0  0  0
    4.7635   -3.7318    0.0000 C   0  0  0  0  0  0  0  0  0  0  0  0
    6.0587   -4.4884    0.0000 H   0  0  0  0  0  0  0  0  0  0  0  0
    3.4598   -4.4754    0.0000 C   0  0  0  0  0  0  0  0  0  0  0  0
    3.4524   -5.9754    0.0000 H   0  0  0  0  0  0  0  0  0  0  0  0
    2.1635   -3.7190    0.0000 C   0  0  0  0  0  0  0  0  0  0  0  0
    0.8609   -4.4628    0.0000 H   0  0  0  0  0  0  0  0  0  0  0  0
    2.1709   -2.2190    0.0000 C   0  0  0  0  0  0  0  0  0  0  0  0
    0.0468   -0.9782    0.0000 H   0  0  0  0  0  0  0  0  0  0  0  0
    1.7890    4.4430    0.0000 C   0  0  0  0  0  0  0  0  0  0  0  0
    0.4927    5.1993    0.0000 C   0  0  0  0  0  0  0  0  0  0  0  0
   -0.8099    4.4555    0.0000 H   0  0  0  0  0  0  0  0  0  0  0  0
    0.5000    6.6993    0.0000 C   0  0  0  0  0  0  0  0  0  0  0  0
   -0.7952    7.4559    0.0000 H   0  0  0  0  0  0  0  0  0  0  0  0
    1.8037    7.4429    0.0000 C   0  0  0  0  0  0  0  0  0  0  0  0
    1.8111    8.9429    0.0000 H   0  0  0  0  0  0  0  0  0  0  0  0
    3.1000    6.6865    0.0000 C   0  0  0  0  0  0  0  0  0  0  0  0
    4.4026    7.4303    0.0000 H   0  0  0  0  0  0  0  0  0  0  0  0
    3.0926    5.1866    0.0000 C   0  0  0  0  0  0  0  0  0  0  0  0
    4.3878    4.4300    0.0000 H   0  0  0  0  0  0  0  0  0  0  0  0
  1  2  1  0  0  0  0 
  1  3  1  0  0  0  0 
  1  4  1  0  0  0  0 
  1  5  1  0  0  0  0 
  5  6  1  0  0  0  0 
  6  7  1  0  0  0  0 
  6  8  1  0  0  0  0 
  6  9  1  0  0  0  0 
  5 10  1  0  0  0  0 
 10 11  1  0  0  0  0 
 10 12  1  0  0  0  0 
 10 13  1  0  0  0  0 
 13 14  1  0  0  0  0 
 13 15  1  0  0  0  0 
 13 16  1  0  0  0  0 
 16 17  1  0  0  0  0 
 17 18  2  0  0  0  0 
 18 19  1  0  0  0  0 
 18 20  1  0  0  0  0 
 20 21  1  0  0  0  0 
 20 22  2  0  0  0  0 
 22 23  1  0  0  0  0 
 23 24  1  0  0  0  0 
 23 25  2  0  0  0  0 
 17 25  1  0  0  0  0 
 25 26  1  0  0  0  0 
 22 27  1  0  0  0  0 
 27 28  2  0  0  0  0 
 28 29  1  0  0  0  0 
 29 30  1  0  0  0  0 
 29 31  1  0  0  0  0 
 29 32  1  0  0  0  0 
 32 33  2  0  0  0  0 
 32 34  1  0  0  0  0 
 34 35  1  0  0  0  0 
 28 36  1  0  0  0  0 
 36 37  2  0  0  0  0 
 37 38  1  0  0  0  0 
 37 39  1  0  0  0  0 
 39 40  1  0  0  0  0 
 39 41  2  0  0  0  0 
 41 42  1  0  0  0  0 
 41 43  1  0  0  0  0 
 43 44  1  0  0  0  0 
 43 45  2  0  0  0  0 
 36 45  1  0  0  0  0 
 45 46  1  0  0  0  0 
 27 47  1  0  0  0  0 
 47 48  2  0  0  0  0 
 48 49  1  0  0  0  0 
 48 50  1  0  0  0  0 
 50 51  1  0  0  0  0 
 50 52  2  0  0  0  0 
 52 53  1  0  0  0  0 
 52 54  1  0  0  0  0 
 54 55  1  0  0  0  0 
 54 56  2  0  0  0  0 
 47 56  1  0  0  0  0 
 56 57  1  0  0  0  0 
M  END
> <Rank>
15

> <Priority_score>
0.152

> <Reaction_type>
carboxylation_(primary_carbon_next_to_sec_carbon)

> <Parent_ID>
1

> <Parent_InChI>
InChI=1S/C26H29NO/c1-4-25(21-11-7-5-8-12-21)26(22-13-9-6-10-14-22)23-15-17-24(18-16-23)28-20-19-27(2)3/h5-18H,4,19-20H2,1-3H3

> <Parent_SMILES>
CC/C(=C(\C1=CC=CC=C1)/C2=CC=C(C=C2)OCCN(C)C)/C3=CC=CC=C3

$$$$
Molecule 1_metabolite 17
  CDK     0516241028

 58 60  0  0  0  0  0  0  0  0999 V2000
   -7.9964    5.0647    0.0000 C   0  0  0  0  0  0  0  0  0  0  0  0
   -8.7464    6.3637    0.0000 H   0  0  0  0  0  0  0  0  0  0  0  0
   -9.4059    4.5517    0.0000 H   0  0  0  0  0  0  0  0  0  0  0  0
   -7.7359    3.5875    0.0000 H   0  0  0  0  0  0  0  0  0  0  0  0
   -6.4964    5.0647    0.0000 C   0  0  0  0  0  0  0  0  0  0  0  0
   -5.0869    5.5777    0.0000 H   0  0  0  0  0  0  0  0  0  0  0  0
   -5.7464    3.7657    0.0000 C   0  0  0  0  0  0  0  0  0  0  0  0
   -3.7664    3.7657    0.0000 C   0  0  0  0  0  0  0  0  0  0  0  0
   -2.7764    5.4804    0.0000 C   0  0  0  0  0  0  0  0  0  0  0  0
   -1.2756    5.4799    0.0000 C   0  0  0  0  0  0  0  0  0  0  0  0
   -0.5258    4.1807    0.0000 H   0  0  0  0  0  0  0  0  0  0  0  0
   -0.5256    6.7789    0.0000 C   0  0  0  0  0  0  0  0  0  0  0  0
    0.9744    6.7792    0.0000 H   0  0  0  0  0  0  0  0  0  0  0  0
   -1.2764    8.0785    0.0000 C   0  0  0  0  0  0  0  0  0  0  0  0
   -0.5264    9.3775    0.0000 H   0  0  0  0  0  0  0  0  0  0  0  0
   -2.7772    8.0789    0.0000 C   0  0  0  0  0  0  0  0  0  0  0  0
   -3.5270    9.3781    0.0000 H   0  0  0  0  0  0  0  0  0  0  0  0
   -3.5272    6.7799    0.0000 C   0  0  0  0  0  0  0  0  0  0  0  0
   -5.0272    6.7797    0.0000 H   0  0  0  0  0  0  0  0  0  0  0  0
   -2.5364    1.6352    0.0000 C   0  0  0  0  0  0  0  0  0  0  0  0
   -3.2928    0.3399    0.0000 C   0  0  0  0  0  0  0  0  0  0  0  0
   -4.7927    0.3547    0.0000 H   0  0  0  0  0  0  0  0  0  0  0  0
   -2.5743   -0.9482    0.0000 C   0  0  0  0  0  0  0  0  0  0  0  0
   -3.3477   -2.2334    0.0000 H   0  0  0  0  0  0  0  0  0  0  0  0
   -1.0303   -0.9813    0.0000 C   0  0  0  0  0  0  0  0  0  0  0  0
   -0.2739    0.3141    0.0000 C   0  0  0  0  0  0  0  0  0  0  0  0
    1.2261    0.3191    0.0000 H   0  0  0  0  0  0  0  0  0  0  0  0
   -1.0615    1.6425    0.0000 C   0  0  0  0  0  0  0  0  0  0  0  0
   -0.3222    2.9477    0.0000 H   0  0  0  0  0  0  0  0  0  0  0  0
   -0.2975   -2.2901    0.0000 O   0  0  0  0  0  0  0  0  0  0  0  0
    1.2024   -2.3098    0.0000 C   0  0  0  0  0  0  0  0  0  0  0  0
    0.9614   -0.8293    0.0000 H   0  0  0  0  0  0  0  0  0  0  0  0
    2.6186   -1.8154    0.0000 H   0  0  0  0  0  0  0  0  0  0  0  0
    1.9352   -3.6186    0.0000 C   0  0  0  0  0  0  0  0  0  0  0  0
    2.1762   -5.0991    0.0000 H   0  0  0  0  0  0  0  0  0  0  0  0
    0.5191   -4.1130    0.0000 H   0  0  0  0  0  0  0  0  0  0  0  0
    3.9151   -3.6447    0.0000 N   0  0  0  0  0  0  0  0  0  0  0  0
    4.6479   -4.9535    0.0000 C   0  0  0  0  0  0  0  0  0  0  0  0
    6.1478   -4.9733    0.0000 H   0  0  0  0  0  0  0  0  0  0  0  0
    4.8889   -6.4340    0.0000 H   0  0  0  0  0  0  0  0  0  0  0  0
    3.2317   -5.4479    0.0000 H   0  0  0  0  0  0  0  0  0  0  0  0
    4.6821   -2.3557    0.0000 C   0  0  0  0  0  0  0  0  0  0  0  0
    3.9493   -1.0468    0.0000 H   0  0  0  0  0  0  0  0  0  0  0  0
    5.8184   -3.3349    0.0000 H   0  0  0  0  0  0  0  0  0  0  0  0
    5.8438   -1.4067    0.0000 H   0  0  0  0  0  0  0  0  0  0  0  0
   -6.4964    2.4666    0.0000 C   0  0  0  0  0  0  0  0  0  0  0  0
   -5.7456    1.1671    0.0000 C   0  0  0  0  0  0  0  0  0  0  0  0
   -3.2856    1.1675    0.0000 H   0  0  0  0  0  0  0  0  0  0  0  0
   -6.4956   -0.1319    0.0000 C   0  0  0  0  0  0  0  0  0  0  0  0
   -5.7458   -1.4311    0.0000 H   0  0  0  0  0  0  0  0  0  0  0  0
   -7.9964   -0.1315    0.0000 C   0  0  0  0  0  0  0  0  0  0  0  0
   -8.7464   -1.4305    0.0000 H   0  0  0  0  0  0  0  0  0  0  0  0
   -8.7472    1.1681    0.0000 C   0  0  0  0  0  0  0  0  0  0  0  0
  -10.2472    1.1678    0.0000 H   0  0  0  0  0  0  0  0  0  0  0  0
   -7.9972    2.4671    0.0000 C   0  0  0  0  0  0  0  0  0  0  0  0
   -8.7470    3.7663    0.0000 H   0  0  0  0  0  0  0  0  0  0  0  0
   -6.7569    6.5419    0.0000 O   0  0  0  0  0  0  0  0  0  0  0  0
   -8.1664    7.0549    0.0000 H   0  0  0  0  0  0  0  0  0  0  0  0
  1  2  1  0  0  0  0 
  1  3  1  0  0  0  0 
  1  4  1  0  0  0  0 
  1  5  1  0  0  0  0 
  5  6  1  0  0  0  0 
  5  7  1  0  0  0  0 
  7  8  2  0  0  0  0 
  8  9  1  0  0  0  0 
  9 10  2  0  0  0  0 
 10 11  1  0  0  0  0 
 10 12  1  0  0  0  0 
 12 13  1  0  0  0  0 
 12 14  2  0  0  0  0 
 14 15  1  0  0  0  0 
 14 16  1  0  0  0  0 
 16 17  1  0  0  0  0 
 16 18  2  0  0  0  0 
  9 18  1  0  0  0  0 
 18 19  1  0  0  0  0 
  8 20  1  0  0  0  0 
 20 21  2  0  0  0  0 
 21 22  1  0  0  0  0 
 21 23  1  0  0  0  0 
 23 24  1  0  0  0  0 
 23 25  2  0  0  0  0 
 25 26  1  0  0  0  0 
 26 27  1  0  0  0  0 
 26 28  2  0  0  0  0 
 20 28  1  0  0  0  0 
 28 29  1  0  0  0  0 
 25 30  1  0  0  0  0 
 30 31  1  0  0  0  0 
 31 32  1  0  0  0  0 
 31 33  1  0  0  0  0 
 31 34  1  0  0  0  0 
 34 35  1  0  0  0  0 
 34 36  1  0  0  0  0 
 34 37  1  0  0  0  0 
 37 38  1  0  0  0  0 
 38 39  1  0  0  0  0 
 38 40  1  0  0  0  0 
 38 41  1  0  0  0  0 
 37 42  1  0  0  0  0 
 42 43  1  0  0  0  0 
 42 44  1  0  0  0  0 
 42 45  1  0  0  0  0 
  7 46  1  0  0  0  0 
 46 47  2  0  0  0  0 
 47 48  1  0  0  0  0 
 47 49  1  0  0  0  0 
 49 50  1  0  0  0  0 
 49 51  2  0  0  0  0 
 51 52  1  0  0  0  0 
 51 53  1  0  0  0  0 
 53 54  1  0  0  0  0 
 53 55  2  0  0  0  0 
 46 55  1  0  0  0  0 
 55 56  1  0  0  0  0 
  5 57  1  0  0  0  0 
 57 58  1  0  0  0  0 
M  END
> <Rank>
15

> <Priority_score>
0.152

> <Reaction_type>
aliphatic_hydroxylation_(sec_carbon_next_to_SP2,not_in_a_ring)

> <Parent_ID>
1

> <Parent_InChI>
InChI=1S/C26H29NO/c1-4-25(21-11-7-5-8-12-21)26(22-13-9-6-10-14-22)23-15-17-24(18-16-23)28-20-19-27(2)3/h5-18H,4,19-20H2,1-3H3

> <Parent_SMILES>
CC/C(=C(\C1=CC=CC=C1)/C2=CC=C(C=C2)OCCN(C)C)/C3=CC=CC=C3

$$$$
Molecule 1_metabolite 18
  CDK     0516241028

 58 60  0  0  0  0  0  0  0  0999 V2000
   -8.2224   -1.7861    0.0000 C   0  0  0  0  0  0  0  0  0  0  0  0
   -8.2101   -3.2860    0.0000 H   0  0  0  0  0  0  0  0  0  0  0  0
   -9.6974   -2.0587    0.0000 H   0  0  0  0  0  0  0  0  0  0  0  0
   -8.7471   -0.3808    0.0000 H   0  0  0  0  0  0  0  0  0  0  0  0
   -6.9296   -1.0254    0.0000 N   0  0  0  0  0  0  0  0  0  0  0  0
   -6.9460    0.9546    0.0000 C   0  0  0  0  0  0  0  0  0  0  0  0
   -5.6531    1.7152    0.0000 H   0  0  0  0  0  0  0  0  0  0  0  0
   -8.4210    0.6819    0.0000 H   0  0  0  0  0  0  0  0  0  0  0  0
   -7.4706    2.3598    0.0000 H   0  0  0  0  0  0  0  0  0  0  0  0
   -5.6244   -1.7646    0.0000 C   0  0  0  0  0  0  0  0  0  0  0  0
   -6.5791   -2.9216    0.0000 H   0  0  0  0  0  0  0  0  0  0  0  0
   -4.6508   -2.9057    0.0000 H   0  0  0  0  0  0  0  0  0  0  0  0
   -4.3316   -1.0039    0.0000 C   0  0  0  0  0  0  0  0  0  0  0  0
   -3.3770    0.1530    0.0000 H   0  0  0  0  0  0  0  0  0  0  0  0
   -5.3053    0.1371    0.0000 H   0  0  0  0  0  0  0  0  0  0  0  0
   -3.0265   -1.7432    0.0000 O   0  0  0  0  0  0  0  0  0  0  0  0
   -1.7336   -0.9825    0.0000 C   0  0  0  0  0  0  0  0  0  0  0  0
   -0.3836   -1.7325    0.0000 C   0  0  0  0  0  0  0  0  0  0  0  0
   -0.3639   -3.2324    0.0000 H   0  0  0  0  0  0  0  0  0  0  0  0
    0.8864   -0.9825    0.0000 C   0  0  0  0  0  0  0  0  0  0  0  0
    2.1891   -1.7261    0.0000 H   0  0  0  0  0  0  0  0  0  0  0  0
    0.8864    0.5175    0.0000 C   0  0  0  0  0  0  0  0  0  0  0  0
   -0.3836    1.2675    0.0000 C   0  0  0  0  0  0  0  0  0  0  0  0
   -0.3639    2.7674    0.0000 H   0  0  0  0  0  0  0  0  0  0  0  0
   -1.7336    0.5175    0.0000 C   0  0  0  0  0  0  0  0  0  0  0  0
   -3.0265    1.2782    0.0000 H   0  0  0  0  0  0  0  0  0  0  0  0
    3.0228    1.7370    0.0000 C   0  0  0  0  0  0  0  0  0  0  0  0
    4.3181    0.9806    0.0000 C   0  0  0  0  0  0  0  0  0  0  0  0
    5.6209    1.7242    0.0000 C   0  0  0  0  0  0  0  0  0  0  0  0
    6.5907    2.8685    0.0000 H   0  0  0  0  0  0  0  0  0  0  0  0
    4.6623    2.8780    0.0000 H   0  0  0  0  0  0  0  0  0  0  0  0
    6.9162    0.9678    0.0000 C   0  0  0  0  0  0  0  0  0  0  0  0
    5.9464   -0.1765    0.0000 H   0  0  0  0  0  0  0  0  0  0  0  0
    7.8747   -0.1860    0.0000 H   0  0  0  0  0  0  0  0  0  0  0  0
    8.2189    1.7114    0.0000 O   0  0  0  0  0  0  0  0  0  0  0  0
    9.5142    0.9550    0.0000 H   0  0  0  0  0  0  0  0  0  0  0  0
    4.3108   -0.5194    0.0000 C   0  0  0  0  0  0  0  0  0  0  0  0
    5.6070   -1.2758    0.0000 C   0  0  0  0  0  0  0  0  0  0  0  0
    6.9096   -0.5320    0.0000 H   0  0  0  0  0  0  0  0  0  0  0  0
    5.5997   -2.7758    0.0000 C   0  0  0  0  0  0  0  0  0  0  0  0
    6.8949   -3.5323    0.0000 H   0  0  0  0  0  0  0  0  0  0  0  0
    4.2960   -3.5193    0.0000 C   0  0  0  0  0  0  0  0  0  0  0  0
    4.2886   -5.0193    0.0000 H   0  0  0  0  0  0  0  0  0  0  0  0
    2.9997   -2.7630    0.0000 C   0  0  0  0  0  0  0  0  0  0  0  0
    1.6971   -3.5068    0.0000 H   0  0  0  0  0  0  0  0  0  0  0  0
    3.0071   -1.2630    0.0000 C   0  0  0  0  0  0  0  0  0  0  0  0
    1.8629   -0.2930    0.0000 H   0  0  0  0  0  0  0  0  0  0  0  0
    3.0326    3.7170    0.0000 C   0  0  0  0  0  0  0  0  0  0  0  0
    1.7363    4.4734    0.0000 C   0  0  0  0  0  0  0  0  0  0  0  0
    0.4337    3.7295    0.0000 H   0  0  0  0  0  0  0  0  0  0  0  0
    1.7436    5.9733    0.0000 C   0  0  0  0  0  0  0  0  0  0  0  0
    0.4484    6.7299    0.0000 H   0  0  0  0  0  0  0  0  0  0  0  0
    3.0473    6.7169    0.0000 C   0  0  0  0  0  0  0  0  0  0  0  0
    3.0547    8.2169    0.0000 H   0  0  0  0  0  0  0  0  0  0  0  0
    4.3436    5.9605    0.0000 C   0  0  0  0  0  0  0  0  0  0  0  0
    5.6462    6.7043    0.0000 H   0  0  0  0  0  0  0  0  0  0  0  0
    4.3362    4.4606    0.0000 C   0  0  0  0  0  0  0  0  0  0  0  0
    5.6314    3.7040    0.0000 H   0  0  0  0  0  0  0  0  0  0  0  0
  1  2  1  0  0  0  0 
  1  3  1  0  0  0  0 
  1  4  1  0  0  0  0 
  1  5  1  0  0  0  0 
  5  6  1  0  0  0  0 
  6  7  1  0  0  0  0 
  6  8  1  0  0  0  0 
  6  9  1  0  0  0  0 
  5 10  1  0  0  0  0 
 10 11  1  0  0  0  0 
 10 12  1  0  0  0  0 
 10 13  1  0  0  0  0 
 13 14  1  0  0  0  0 
 13 15  1  0  0  0  0 
 13 16  1  0  0  0  0 
 16 17  1  0  0  0  0 
 17 18  2  0  0  0  0 
 18 19  1  0  0  0  0 
 18 20  1  0  0  0  0 
 20 21  1  0  0  0  0 
 20 22  2  0  0  0  0 
 22 23  1  0  0  0  0 
 23 24  1  0  0  0  0 
 23 25  2  0  0  0  0 
 17 25  1  0  0  0  0 
 25 26  1  0  0  0  0 
 22 27  1  0  0  0  0 
 27 28  2  0  0  0  0 
 28 29  1  0  0  0  0 
 29 30  1  0  0  0  0 
 29 31  1  0  0  0  0 
 29 32  1  0  0  0  0 
 32 33  1  0  0  0  0 
 32 34  1  0  0  0  0 
 32 35  1  0  0  0  0 
 35 36  1  0  0  0  0 
 28 37  1  0  0  0  0 
 37 38  2  0  0  0  0 
 38 39  1  0  0  0  0 
 38 40  1  0  0  0  0 
 40 41  1  0  0  0  0 
 40 42  2  0  0  0  0 
 42 43  1  0  0  0  0 
 42 44  1  0  0  0  0 
 44 45  1  0  0  0  0 
 44 46  2  0  0  0  0 
 37 46  1  0  0  0  0 
 46 47  1  0  0  0  0 
 27 48  1  0  0  0  0 
 48 49  2  0  0  0  0 
 49 50  1  0  0  0  0 
 49 51  1  0  0  0  0 
 51 52  1  0  0  0  0 
 51 53  2  0  0  0  0 
 53 54  1  0  0  0  0 
 53 55  1  0  0  0  0 
 55 56  1  0  0  0  0 
 55 57  2  0  0  0  0 
 48 57  1  0  0  0  0 
 57 58  1  0  0  0  0 
M  END
> <Rank>
15

> <Priority_score>
0.152

> <Reaction_type>
aliphatic_hydroxylation_(primary_carbon_next_to_sec_carbon)

> <Parent_ID>
1

> <Parent_InChI>
InChI=1S/C26H29NO/c1-4-25(21-11-7-5-8-12-21)26(22-13-9-6-10-14-22)23-15-17-24(18-16-23)28-20-19-27(2)3/h5-18H,4,19-20H2,1-3H3

> <Parent_SMILES>
CC/C(=C(\C1=CC=CC=C1)/C2=CC=C(C=C2)OCCN(C)C)/C3=CC=CC=C3

$$$$
Molecule 1_metabolite 19
  CDK     0516241028

 56 58  0  0  0  0  0  0  0  0999 V2000
   -7.5941    4.8498    0.0000 C   0  0  0  0  0  0  0  0  0  0  0  0
   -8.3441    6.1488    0.0000 H   0  0  0  0  0  0  0  0  0  0  0  0
   -9.0036    4.3367    0.0000 H   0  0  0  0  0  0  0  0  0  0  0  0
   -7.3336    3.3725    0.0000 H   0  0  0  0  0  0  0  0  0  0  0  0
   -6.0941    4.8498    0.0000 C   0  0  0  0  0  0  0  0  0  0  0  0
   -4.6845    5.3628    0.0000 H   0  0  0  0  0  0  0  0  0  0  0  0
   -6.3545    6.3270    0.0000 H   0  0  0  0  0  0  0  0  0  0  0  0
   -5.3441    3.5507    0.0000 C   0  0  0  0  0  0  0  0  0  0  0  0
   -3.3641    3.5507    0.0000 C   0  0  0  0  0  0  0  0  0  0  0  0
   -2.3741    5.2654    0.0000 C   0  0  0  0  0  0  0  0  0  0  0  0
   -0.8732    5.2650    0.0000 C   0  0  0  0  0  0  0  0  0  0  0  0
   -0.1234    3.9658    0.0000 H   0  0  0  0  0  0  0  0  0  0  0  0
   -0.1232    6.5640    0.0000 C   0  0  0  0  0  0  0  0  0  0  0  0
    1.3768    6.5642    0.0000 H   0  0  0  0  0  0  0  0  0  0  0  0
   -0.8741    7.8635    0.0000 C   0  0  0  0  0  0  0  0  0  0  0  0
   -0.1241    9.1626    0.0000 H   0  0  0  0  0  0  0  0  0  0  0  0
   -2.3749    7.8640    0.0000 C   0  0  0  0  0  0  0  0  0  0  0  0
   -3.1247    9.1632    0.0000 H   0  0  0  0  0  0  0  0  0  0  0  0
   -3.1249    6.5650    0.0000 C   0  0  0  0  0  0  0  0  0  0  0  0
   -4.6249    6.5647    0.0000 H   0  0  0  0  0  0  0  0  0  0  0  0
   -2.1341    1.4203    0.0000 C   0  0  0  0  0  0  0  0  0  0  0  0
   -0.6341    1.4277    0.0000 C   0  0  0  0  0  0  0  0  0  0  0  0
    0.1031    2.7340    0.0000 H   0  0  0  0  0  0  0  0  0  0  0  0
    0.1222    0.1614    0.0000 C   0  0  0  0  0  0  0  0  0  0  0  0
    1.6219    0.1885    0.0000 H   0  0  0  0  0  0  0  0  0  0  0  0
   -0.6212   -1.1923    0.0000 C   0  0  0  0  0  0  0  0  0  0  0  0
   -2.1212   -1.1997    0.0000 C   0  0  0  0  0  0  0  0  0  0  0  0
   -2.8755   -2.4962    0.0000 H   0  0  0  0  0  0  0  0  0  0  0  0
   -2.8778    0.1466    0.0000 C   0  0  0  0  0  0  0  0  0  0  0  0
   -4.3778    0.1590    0.0000 H   0  0  0  0  0  0  0  0  0  0  0  0
    0.1458   -2.4813    0.0000 O   0  0  0  0  0  0  0  0  0  0  0  0
    1.6457   -2.4616    0.0000 C   0  0  0  0  0  0  0  0  0  0  0  0
    3.0484   -1.9300    0.0000 H   0  0  0  0  0  0  0  0  0  0  0  0
    1.3658   -0.9879    0.0000 H   0  0  0  0  0  0  0  0  0  0  0  0
    2.4128   -3.7506    0.0000 C   0  0  0  0  0  0  0  0  0  0  0  0
    1.6799   -5.0594    0.0000 H   0  0  0  0  0  0  0  0  0  0  0  0
    3.9126   -3.7309    0.0000 N   0  0  0  0  0  0  0  0  0  0  0  0
    4.6797   -5.0199    0.0000 C   0  0  0  0  0  0  0  0  0  0  0  0
    6.1796   -5.0002    0.0000 H   0  0  0  0  0  0  0  0  0  0  0  0
    3.2770   -5.5515    0.0000 H   0  0  0  0  0  0  0  0  0  0  0  0
    4.9596   -6.4936    0.0000 H   0  0  0  0  0  0  0  0  0  0  0  0
    4.6455   -2.4221    0.0000 C   0  0  0  0  0  0  0  0  0  0  0  0
    3.8784   -1.1330    0.0000 H   0  0  0  0  0  0  0  0  0  0  0  0
    5.7817   -1.4428    0.0000 H   0  0  0  0  0  0  0  0  0  0  0  0
    5.8071   -3.3710    0.0000 H   0  0  0  0  0  0  0  0  0  0  0  0
   -6.0941    2.2517    0.0000 C   0  0  0  0  0  0  0  0  0  0  0  0
   -5.3432    0.9522    0.0000 C   0  0  0  0  0  0  0  0  0  0  0  0
   -2.8832    0.9526    0.0000 H   0  0  0  0  0  0  0  0  0  0  0  0
   -6.0932   -0.3469    0.0000 C   0  0  0  0  0  0  0  0  0  0  0  0
   -5.3434   -1.6460    0.0000 H   0  0  0  0  0  0  0  0  0  0  0  0
   -7.5941   -0.3464    0.0000 C   0  0  0  0  0  0  0  0  0  0  0  0
   -8.3441   -1.6454    0.0000 H   0  0  0  0  0  0  0  0  0  0  0  0
   -8.3449    0.9531    0.0000 C   0  0  0  0  0  0  0  0  0  0  0  0
   -9.8449    0.9529    0.0000 H   0  0  0  0  0  0  0  0  0  0  0  0
   -7.5949    2.2522    0.0000 C   0  0  0  0  0  0  0  0  0  0  0  0
   -8.3447    3.5513    0.0000 H   0  0  0  0  0  0  0  0  0  0  0  0
  1  2  1  0  0  0  0 
  1  3  1  0  0  0  0 
  1  4  1  0  0  0  0 
  1  5  1  0  0  0  0 
  5  6  1  0  0  0  0 
  5  7  1  0  0  0  0 
  5  8  1  0  0  0  0 
  8  9  2  0  0  0  0 
  9 10  1  0  0  0  0 
 10 11  2  0  0  0  0 
 11 12  1  0  0  0  0 
 11 13  1  0  0  0  0 
 13 14  1  0  0  0  0 
 13 15  2  0  0  0  0 
 15 16  1  0  0  0  0 
 15 17  1  0  0  0  0 
 17 18  1  0  0  0  0 
 17 19  2  0  0  0  0 
 10 19  1  0  0  0  0 
 19 20  1  0  0  0  0 
  9 21  1  0  0  0  0 
 21 22  2  0  0  0  0 
 22 23  1  0  0  0  0 
 22 24  1  0  0  0  0 
 24 25  1  0  0  0  0 
 24 26  2  0  0  0  0 
 26 27  1  0  0  0  0 
 27 28  1  0  0  0  0 
 27 29  2  0  0  0  0 
 21 29  1  0  0  0  0 
 29 30  1  0  0  0  0 
 26 31  1  0  0  0  0 
 31 32  1  0  0  0  0 
 32 33  1  0  0  0  0 
 32 34  1  0  0  0  0 
 32 35  1  0  0  0  0 
 35 36  1  0  0  0  0 
 35 37  2  0  0  0  0 
 37 38  1  0  0  0  0 
 38 39  1  0  0  0  0 
 38 40  1  0  0  0  0 
 38 41  1  0  0  0  0 
 37 42  1  0  0  0  0 
 42 43  1  0  0  0  0 
 42 44  1  0  0  0  0 
 42 45  1  0  0  0  0 
  8 46  1  0  0  0  0 
 46 47  2  0  0  0  0 
 47 48  1  0  0  0  0 
 47 49  1  0  0  0  0 
 49 50  1  0  0  0  0 
 49 51  2  0  0  0  0 
 51 52  1  0  0  0  0 
 51 53  1  0  0  0  0 
 53 54  1  0  0  0  0 
 53 55  2  0  0  0  0 
 46 55  1  0  0  0  0 
 55 56  1  0  0  0  0 
M  CHG  1  37   1
M  END
> <Rank>
19

> <Priority_score>
0.1024

> <Reaction_type>
dehydration of N-C bond

> <Parent_ID>
1

> <Parent_InChI>
InChI=1S/C26H29NO/c1-4-25(21-11-7-5-8-12-21)26(22-13-9-6-10-14-22)23-15-17-24(18-16-23)28-20-19-27(2)3/h5-18H,4,19-20H2,1-3H3

> <Parent_SMILES>
CC/C(=C(\C1=CC=CC=C1)/C2=CC=C(C=C2)OCCN(C)C)/C3=CC=CC=C3

$$$$
Molecule 1_metabolite 20
  CDK     0516241028

 58 61  0  0  0  0  0  0  0  0999 V2000
   -3.5510   -2.6792    0.0000 C   0  0  0  0  0  0  0  0  0  0  0  0
   -2.4018   -1.7151    0.0000 H   0  0  0  0  0  0  0  0  0  0  0  0
   -4.3009   -1.3801    0.0000 H   0  0  0  0  0  0  0  0  0  0  0  0
   -4.9606   -3.1921    0.0000 H   0  0  0  0  0  0  0  0  0  0  0  0
   -3.2074   -4.6292    0.0000 C   0  0  0  0  0  0  0  0  0  0  0  0
   -2.4575   -5.9283    0.0000 H   0  0  0  0  0  0  0  0  0  0  0  0
   -1.7978   -4.1163    0.0000 H   0  0  0  0  0  0  0  0  0  0  0  0
   -4.3566   -5.5932    0.0000 C   0  0  0  0  0  0  0  0  0  0  0  0
   -6.6083   -3.7029    0.0000 C   0  0  0  0  0  0  0  0  0  0  0  0
   -8.0186   -4.2164    0.0000 C   0  0  0  0  0  0  0  0  0  0  0  0
   -8.2791   -5.6936    0.0000 H   0  0  0  0  0  0  0  0  0  0  0  0
   -9.1675   -3.2520    0.0000 C   0  0  0  0  0  0  0  0  0  0  0  0
  -10.5772   -3.7645    0.0000 H   0  0  0  0  0  0  0  0  0  0  0  0
   -8.9060   -1.7741    0.0000 C   0  0  0  0  0  0  0  0  0  0  0  0
  -10.0549   -0.8097    0.0000 H   0  0  0  0  0  0  0  0  0  0  0  0
   -7.4958   -1.2606    0.0000 C   0  0  0  0  0  0  0  0  0  0  0  0
   -7.2352    0.2166    0.0000 H   0  0  0  0  0  0  0  0  0  0  0  0
   -6.3469   -2.2250    0.0000 C   0  0  0  0  0  0  0  0  0  0  0  0
   -4.8696   -1.9651    0.0000 H   0  0  0  0  0  0  0  0  0  0  0  0
   -3.6066   -6.8923    0.0000 C   0  0  0  0  0  0  0  0  0  0  0  0
   -3.0954   -9.7875    0.0000 C   0  0  0  0  0  0  0  0  0  0  0  0
   -1.6848  -10.3000    0.0000 C   0  0  0  0  0  0  0  0  0  0  0  0
   -0.5361   -9.3354    0.0000 H   0  0  0  0  0  0  0  0  0  0  0  0
   -1.4240  -11.7772    0.0000 C   0  0  0  0  0  0  0  0  0  0  0  0
   -0.0145  -12.2902    0.0000 H   0  0  0  0  0  0  0  0  0  0  0  0
   -2.5738  -12.7418    0.0000 C   0  0  0  0  0  0  0  0  0  0  0  0
   -2.3130  -14.2189    0.0000 H   0  0  0  0  0  0  0  0  0  0  0  0
   -3.9844  -12.2292    0.0000 C   0  0  0  0  0  0  0  0  0  0  0  0
   -5.1331  -13.1938    0.0000 H   0  0  0  0  0  0  0  0  0  0  0  0
   -4.2452  -10.7521    0.0000 C   0  0  0  0  0  0  0  0  0  0  0  0
   -5.6548  -10.2391    0.0000 H   0  0  0  0  0  0  0  0  0  0  0  0
   -1.2950   -6.0506    0.0000 C   0  0  0  0  0  0  0  0  0  0  0  0
   -1.0420   -4.5721    0.0000 C   0  0  0  0  0  0  0  0  0  0  0  0
   -1.5690   -3.1678    0.0000 H   0  0  0  0  0  0  0  0  0  0  0  0
    0.3364   -4.0471    0.0000 C   0  0  0  0  0  0  0  0  0  0  0  0
    0.5699   -2.5654    0.0000 H   0  0  0  0  0  0  0  0  0  0  0  0
    1.5405   -5.0141    0.0000 C   0  0  0  0  0  0  0  0  0  0  0  0
    1.2874   -6.4926    0.0000 C   0  0  0  0  0  0  0  0  0  0  0  0
    2.4334   -7.4605    0.0000 H   0  0  0  0  0  0  0  0  0  0  0  0
   -0.1697   -7.0041    0.0000 C   0  0  0  0  0  0  0  0  0  0  0  0
   -0.4422   -8.4792    0.0000 H   0  0  0  0  0  0  0  0  0  0  0  0
    2.9431   -4.4824    0.0000 O   0  0  0  0  0  0  0  0  0  0  0  0
    4.1049   -5.4312    0.0000 C   0  0  0  0  0  0  0  0  0  0  0  0
    2.9687   -6.4106    0.0000 H   0  0  0  0  0  0  0  0  0  0  0  0
    4.8720   -6.7202    0.0000 H   0  0  0  0  0  0  0  0  0  0  0  0
    5.5075   -4.8995    0.0000 C   0  0  0  0  0  0  0  0  0  0  0  0
    6.6436   -3.9202    0.0000 H   0  0  0  0  0  0  0  0  0  0  0  0
    4.7403   -3.6106    0.0000 H   0  0  0  0  0  0  0  0  0  0  0  0
    7.0410   -6.1520    0.0000 N   0  0  0  0  0  0  0  0  0  0  0  0
    8.4436   -5.6203    0.0000 C   0  0  0  0  0  0  0  0  0  0  0  0
    9.6054   -6.5692    0.0000 H   0  0  0  0  0  0  0  0  0  0  0  0
    9.5798   -4.6410    0.0000 H   0  0  0  0  0  0  0  0  0  0  0  0
    7.6764   -4.3313    0.0000 H   0  0  0  0  0  0  0  0  0  0  0  0
    6.8002   -7.6326    0.0000 C   0  0  0  0  0  0  0  0  0  0  0  0
    5.3976   -8.1643    0.0000 H   0  0  0  0  0  0  0  0  0  0  0  0
    8.3000   -7.6126    0.0000 H   0  0  0  0  0  0  0  0  0  0  0  0
    7.0802   -9.1062    0.0000 H   0  0  0  0  0  0  0  0  0  0  0  0
   -5.1074   -6.8927    0.0000 O   0  0  0  0  0  0  0  0  0  0  0  0
  1  2  1  0  0  0  0 
  1  3  1  0  0  0  0 
  1  4  1  0  0  0  0 
  1  5  1  0  0  0  0 
  5  6  1  0  0  0  0 
  5  7  1  0  0  0  0 
  5  8  1  0  0  0  0 
  8  9  1  0  0  0  0 
  9 10  2  0  0  0  0 
 10 11  1  0  0  0  0 
 10 12  1  0  0  0  0 
 12 13  1  0  0  0  0 
 12 14  2  0  0  0  0 
 14 15  1  0  0  0  0 
 14 16  1  0  0  0  0 
 16 17  1  0  0  0  0 
 16 18  2  0  0  0  0 
  9 18  1  0  0  0  0 
 18 19  1  0  0  0  0 
  8 20  1  0  0  0  0 
 20 21  1  0  0  0  0 
 21 22  2  0  0  0  0 
 22 23  1  0  0  0  0 
 22 24  1  0  0  0  0 
 24 25  1  0  0  0  0 
 24 26  2  0  0  0  0 
 26 27  1  0  0  0  0 
 26 28  1  0  0  0  0 
 28 29  1  0  0  0  0 
 28 30  2  0  0  0  0 
 21 30  1  0  0  0  0 
 30 31  1  0  0  0  0 
 20 32  1  0  0  0  0 
 32 33  2  0  0  0  0 
 33 34  1  0  0  0  0 
 33 35  1  0  0  0  0 
 35 36  1  0  0  0  0 
 35 37  2  0  0  0  0 
 37 38  1  0  0  0  0 
 38 39  1  0  0  0  0 
 38 40  2  0  0  0  0 
 32 40  1  0  0  0  0 
 40 41  1  0  0  0  0 
 37 42  1  0  0  0  0 
 42 43  1  0  0  0  0 
 43 44  1  0  0  0  0 
 43 45  1  0  0  0  0 
 43 46  1  0  0  0  0 
 46 47  1  0  0  0  0 
 46 48  1  0  0  0  0 
 46 49  1  0  0  0  0 
 49 50  1  0  0  0  0 
 50 51  1  0  0  0  0 
 50 52  1  0  0  0  0 
 50 53  1  0  0  0  0 
 49 54  1  0  0  0  0 
 54 55  1  0  0  0  0 
 54 56  1  0  0  0  0 
 54 57  1  0  0  0  0 
 20 58  1  0  0  0  0 
  8 58  1  0  0  0  0 
M  END
> <Rank>
20

> <Priority_score>
0.032

> <Reaction_type>
epoxidation

> <Parent_ID>
1

> <Parent_InChI>
InChI=1S/C26H29NO/c1-4-25(21-11-7-5-8-12-21)26(22-13-9-6-10-14-22)23-15-17-24(18-16-23)28-20-19-27(2)3/h5-18H,4,19-20H2,1-3H3

> <Parent_SMILES>
CC/C(=C(\C1=CC=CC=C1)/C2=CC=C(C=C2)OCCN(C)C)/C3=CC=CC=C3

$$$$
Molecule 1_metabolite 21
  CDK     0516241028

 58 60  0  0  0  0  0  0  0  0999 V2000
    7.6917   -0.8434    0.0000 C   0  0  0  0  0  0  0  0  0  0  0  0
    9.5762   -2.4247    0.0000 H   0  0  0  0  0  0  0  0  0  0  0  0
    6.2821   -0.3304    0.0000 H   0  0  0  0  0  0  0  0  0  0  0  0
    6.9417   -2.1424    0.0000 H   0  0  0  0  0  0  0  0  0  0  0  0
    7.9522    0.6338    0.0000 C   0  0  0  0  0  0  0  0  0  0  0  0
    9.3617    1.1468    0.0000 H   0  0  0  0  0  0  0  0  0  0  0  0
    6.8031    1.5980    0.0000 C   0  0  0  0  0  0  0  0  0  0  0  0
    7.7931    3.3127    0.0000 C   0  0  0  0  0  0  0  0  0  0  0  0
    7.0423    4.6122    0.0000 C   0  0  0  0  0  0  0  0  0  0  0  0
    5.5423    4.6120    0.0000 H   0  0  0  0  0  0  0  0  0  0  0  0
    7.7923    5.9113    0.0000 C   0  0  0  0  0  0  0  0  0  0  0  0
    7.0425    7.2104    0.0000 H   0  0  0  0  0  0  0  0  0  0  0  0
    9.2931    5.9108    0.0000 C   0  0  0  0  0  0  0  0  0  0  0  0
   10.0431    7.2098    0.0000 H   0  0  0  0  0  0  0  0  0  0  0  0
   10.0439    4.6113    0.0000 C   0  0  0  0  0  0  0  0  0  0  0  0
   11.5439    4.6115    0.0000 H   0  0  0  0  0  0  0  0  0  0  0  0
    9.2939    3.3122    0.0000 C   0  0  0  0  0  0  0  0  0  0  0  0
   10.0437    2.0131    0.0000 H   0  0  0  0  0  0  0  0  0  0  0  0
    4.0404    0.5925    0.0000 C   0  0  0  0  0  0  0  0  0  0  0  0
    4.0404   -1.8675    0.0000 C   0  0  0  0  0  0  0  0  0  0  0  0
    5.3404   -2.6175    0.0000 C   0  0  0  0  0  0  0  0  0  0  0  0
    8.2358   -3.1276    0.0000 H   0  0  0  0  0  0  0  0  0  0  0  0
    5.3404   -4.1175    0.0000 C   0  0  0  0  0  0  0  0  0  0  0  0
    6.6393   -4.8678    0.0000 H   0  0  0  0  0  0  0  0  0  0  0  0
    4.0404   -4.8675    0.0000 C   0  0  0  0  0  0  0  0  0  0  0  0
    4.0404   -6.3675    0.0000 H   0  0  0  0  0  0  0  0  0  0  0  0
    2.7404   -4.1175    0.0000 C   0  0  0  0  0  0  0  0  0  0  0  0
    1.4415   -4.8678    0.0000 H   0  0  0  0  0  0  0  0  0  0  0  0
    2.7404   -2.6175    0.0000 C   0  0  0  0  0  0  0  0  0  0  0  0
    0.6102   -1.3872    0.0000 H   0  0  0  0  0  0  0  0  0  0  0  0
    3.3632    2.4530    0.0000 C   0  0  0  0  0  0  0  0  0  0  0  0
    1.8847    2.7062    0.0000 C   0  0  0  0  0  0  0  0  0  0  0  0
    0.9319    1.5477    0.0000 H   0  0  0  0  0  0  0  0  0  0  0  0
    1.3599    4.0846    0.0000 C   0  0  0  0  0  0  0  0  0  0  0  0
   -0.1218    4.3183    0.0000 H   0  0  0  0  0  0  0  0  0  0  0  0
    2.3270    5.2886    0.0000 C   0  0  0  0  0  0  0  0  0  0  0  0
    3.8054    5.0354    0.0000 C   0  0  0  0  0  0  0  0  0  0  0  0
    4.9577    5.9958    0.0000 H   0  0  0  0  0  0  0  0  0  0  0  0
    4.3168    3.5782    0.0000 C   0  0  0  0  0  0  0  0  0  0  0  0
    5.7918    3.3056    0.0000 H   0  0  0  0  0  0  0  0  0  0  0  0
    1.7954    6.6913    0.0000 O   0  0  0  0  0  0  0  0  0  0  0  0
    0.3149    6.9323    0.0000 C   0  0  0  0  0  0  0  0  0  0  0  0
   -1.1587    6.6524    0.0000 H   0  0  0  0  0  0  0  0  0  0  0  0
    0.3347    5.4324    0.0000 H   0  0  0  0  0  0  0  0  0  0  0  0
   -0.2166    8.3350    0.0000 C   0  0  0  0  0  0  0  0  0  0  0  0
    1.2570    8.6149    0.0000 H   0  0  0  0  0  0  0  0  0  0  0  0
   -0.2364    9.8348    0.0000 H   0  0  0  0  0  0  0  0  0  0  0  0
   -2.1709    8.6531    0.0000 N   0  0  0  0  0  0  0  0  0  0  0  0
   -2.7025   10.0557    0.0000 C   0  0  0  0  0  0  0  0  0  0  0  0
   -4.1830   10.2967    0.0000 H   0  0  0  0  0  0  0  0  0  0  0  0
   -1.2288   10.3356    0.0000 H   0  0  0  0  0  0  0  0  0  0  0  0
   -2.7222   11.5556    0.0000 H   0  0  0  0  0  0  0  0  0  0  0  0
   -3.1199    7.4914    0.0000 C   0  0  0  0  0  0  0  0  0  0  0  0
   -2.5883    6.0887    0.0000 H   0  0  0  0  0  0  0  0  0  0  0  0
   -4.4089    6.7244    0.0000 H   0  0  0  0  0  0  0  0  0  0  0  0
   -4.0991    8.6277    0.0000 H   0  0  0  0  0  0  0  0  0  0  0  0
    2.5632    0.3320    0.0000 O   0  0  0  0  0  0  0  0  0  0  0  0
    2.0502   -1.0776    0.0000 H   0  0  0  0  0  0  0  0  0  0  0  0
  1  2  1  0  0  0  0 
  1  3  1  0  0  0  0 
  1  4  1  0  0  0  0 
  1  5  1  0  0  0  0 
  5  6  1  4  0  0  0 
  5  7  2  0  0  0  0 
  7  8  1  0  0  0  0 
  8  9  2  0  0  0  0 
  9 10  1  0  0  0  0 
  9 11  1  0  0  0  0 
 11 12  1  0  0  0  0 
 11 13  2  0  0  0  0 
 13 14  1  0  0  0  0 
 13 15  1  0  0  0  0 
 15 16  1  0  0  0  0 
 15 17  2  0  0  0  0 
  8 17  1  0  0  0  0 
 17 18  1  0  0  0  0 
  7 19  1  0  0  0  0 
 19 20  1  0  0  0  0 
 20 21  2  0  0  0  0 
 21 22  1  0  0  0  0 
 21 23  1  0  0  0  0 
 23 24  1  0  0  0  0 
 23 25  2  0  0  0  0 
 25 26  1  0  0  0  0 
 25 27  1  0  0  0  0 
 27 28  1  0  0  0  0 
 27 29  2  0  0  0  0 
 20 29  1  0  0  0  0 
 29 30  1  0  0  0  0 
 19 31  1  0  0  0  0 
 31 32  2  0  0  0  0 
 32 33  1  0  0  0  0 
 32 34  1  0  0  0  0 
 34 35  1  0  0  0  0 
 34 36  2  0  0  0  0 
 36 37  1  0  0  0  0 
 37 38  1  0  0  0  0 
 37 39  2  0  0  0  0 
 31 39  1  0  0  0  0 
 39 40  1  0  0  0  0 
 36 41  1  0  0  0  0 
 41 42  1  0  0  0  0 
 42 43  1  0  0  0  0 
 42 44  1  0  0  0  0 
 42 45  1  0  0  0  0 
 45 46  1  0  0  0  0 
 45 47  1  0  0  0  0 
 45 48  1  0  0  0  0 
 48 49  1  0  0  0  0 
 49 50  1  0  0  0  0 
 49 51  1  0  0  0  0 
 49 52  1  0  0  0  0 
 48 53  1  0  0  0  0 
 53 54  1  0  0  0  0 
 53 55  1  0  0  0  0 
 53 56  1  0  0  0  0 
 19 57  1  0  0  0  0 
 57 58  1  0  0  0  0 
M  END
> <Rank>
21

> <Priority_score>
0.0304

> <Reaction_type>
aliphatic hydroxylation with allylic rearrangement 1

> <Parent_ID>
1

> <Parent_InChI>
InChI=1S/C26H29NO/c1-4-25(21-11-7-5-8-12-21)26(22-13-9-6-10-14-22)23-15-17-24(18-16-23)28-20-19-27(2)3/h5-18H,4,19-20H2,1-3H3

> <Parent_SMILES>
CC/C(=C(\C1=CC=CC=C1)/C2=CC=C(C=C2)OCCN(C)C)/C3=CC=CC=C3

$$$$
Molecule 1_metabolite 22
  CDK     0516241028

 58 60  0  0  0  0  0  0  0  0999 V2000
   -7.9882    4.5493    0.0000 C   0  0  0  0  0  0  0  0  0  0  0  0
   -8.7382    5.8483    0.0000 H   0  0  0  0  0  0  0  0  0  0  0  0
   -9.3977    4.0362    0.0000 H   0  0  0  0  0  0  0  0  0  0  0  0
   -7.7277    3.0721    0.0000 H   0  0  0  0  0  0  0  0  0  0  0  0
   -6.4882    4.5493    0.0000 C   0  0  0  0  0  0  0  0  0  0  0  0
   -5.0787    5.0623    0.0000 H   0  0  0  0  0  0  0  0  0  0  0  0
   -6.7487    6.0265    0.0000 H   0  0  0  0  0  0  0  0  0  0  0  0
   -5.7382    3.2502    0.0000 C   0  0  0  0  0  0  0  0  0  0  0  0
   -3.7582    3.2502    0.0000 C   0  0  0  0  0  0  0  0  0  0  0  0
   -2.7682    4.9650    0.0000 C   0  0  0  0  0  0  0  0  0  0  0  0
   -1.2674    4.9645    0.0000 C   0  0  0  0  0  0  0  0  0  0  0  0
   -0.5176    3.6653    0.0000 H   0  0  0  0  0  0  0  0  0  0  0  0
   -0.5174    6.2635    0.0000 C   0  0  0  0  0  0  0  0  0  0  0  0
    0.9826    6.2638    0.0000 H   0  0  0  0  0  0  0  0  0  0  0  0
   -1.2682    7.5630    0.0000 C   0  0  0  0  0  0  0  0  0  0  0  0
   -0.5182    8.8621    0.0000 H   0  0  0  0  0  0  0  0  0  0  0  0
   -2.7690    7.5635    0.0000 C   0  0  0  0  0  0  0  0  0  0  0  0
   -3.5188    8.8627    0.0000 H   0  0  0  0  0  0  0  0  0  0  0  0
   -3.5190    6.2645    0.0000 C   0  0  0  0  0  0  0  0  0  0  0  0
   -5.0190    6.2642    0.0000 H   0  0  0  0  0  0  0  0  0  0  0  0
   -2.5282    1.1198    0.0000 C   0  0  0  0  0  0  0  0  0  0  0  0
   -1.0282    1.1272    0.0000 C   0  0  0  0  0  0  0  0  0  0  0  0
   -0.2910    2.4335    0.0000 H   0  0  0  0  0  0  0  0  0  0  0  0
   -0.2720   -0.1391    0.0000 C   0  0  0  0  0  0  0  0  0  0  0  0
    1.2278   -0.1120    0.0000 H   0  0  0  0  0  0  0  0  0  0  0  0
   -1.0153   -1.4928    0.0000 C   0  0  0  0  0  0  0  0  0  0  0  0
   -2.5153   -1.5002    0.0000 C   0  0  0  0  0  0  0  0  0  0  0  0
   -3.2696   -2.7967    0.0000 H   0  0  0  0  0  0  0  0  0  0  0  0
   -3.2719   -0.1539    0.0000 C   0  0  0  0  0  0  0  0  0  0  0  0
   -4.7719   -0.1415    0.0000 H   0  0  0  0  0  0  0  0  0  0  0  0
   -0.2483   -2.7818    0.0000 O   0  0  0  0  0  0  0  0  0  0  0  0
    1.2516   -2.7621    0.0000 C   0  0  0  0  0  0  0  0  0  0  0  0
    2.6543   -2.2305    0.0000 H   0  0  0  0  0  0  0  0  0  0  0  0
    0.9717   -1.2884    0.0000 H   0  0  0  0  0  0  0  0  0  0  0  0
    2.0186   -4.0511    0.0000 C   0  0  0  0  0  0  0  0  0  0  0  0
    0.6160   -4.5827    0.0000 H   0  0  0  0  0  0  0  0  0  0  0  0
    3.5185   -4.0314    0.0000 N   0  0  0  0  0  0  0  0  0  0  0  0
    4.2856   -5.3204    0.0000 C   0  0  0  0  0  0  0  0  0  0  0  0
    3.5527   -6.6292    0.0000 H   0  0  0  0  0  0  0  0  0  0  0  0
    5.4218   -4.3412    0.0000 H   0  0  0  0  0  0  0  0  0  0  0  0
    5.4472   -6.2694    0.0000 H   0  0  0  0  0  0  0  0  0  0  0  0
    4.4858   -2.3037    0.0000 C   0  0  0  0  0  0  0  0  0  0  0  0
    3.7188   -1.0147    0.0000 H   0  0  0  0  0  0  0  0  0  0  0  0
    5.6221   -1.3245    0.0000 H   0  0  0  0  0  0  0  0  0  0  0  0
    5.6475   -3.2527    0.0000 H   0  0  0  0  0  0  0  0  0  0  0  0
    2.2985   -5.5248    0.0000 O   0  0  0  0  0  0  0  0  0  0  0  0
    1.1623   -6.5040    0.0000 H   0  0  0  0  0  0  0  0  0  0  0  0
   -6.4882    1.9512    0.0000 C   0  0  0  0  0  0  0  0  0  0  0  0
   -5.7374    0.6517    0.0000 C   0  0  0  0  0  0  0  0  0  0  0  0
   -3.2774    0.6521    0.0000 H   0  0  0  0  0  0  0  0  0  0  0  0
   -6.4874   -0.6474    0.0000 C   0  0  0  0  0  0  0  0  0  0  0  0
   -5.7376   -1.9465    0.0000 H   0  0  0  0  0  0  0  0  0  0  0  0
   -7.9882   -0.6469    0.0000 C   0  0  0  0  0  0  0  0  0  0  0  0
   -8.7382   -1.9459    0.0000 H   0  0  0  0  0  0  0  0  0  0  0  0
   -8.7390    0.6526    0.0000 C   0  0  0  0  0  0  0  0  0  0  0  0
  -10.2390    0.6524    0.0000 H   0  0  0  0  0  0  0  0  0  0  0  0
   -7.9890    1.9517    0.0000 C   0  0  0  0  0  0  0  0  0  0  0  0
   -8.7388    3.2508    0.0000 H   0  0  0  0  0  0  0  0  0  0  0  0
  1  2  1  0  0  0  0 
  1  3  1  0  0  0  0 
  1  4  1  0  0  0  0 
  1  5  1  0  0  0  0 
  5  6  1  0  0  0  0 
  5  7  1  0  0  0  0 
  5  8  1  0  0  0  0 
  8  9  2  0  0  0  0 
  9 10  1  0  0  0  0 
 10 11  2  0  0  0  0 
 11 12  1  0  0  0  0 
 11 13  1  0  0  0  0 
 13 14  1  0  0  0  0 
 13 15  2  0  0  0  0 
 15 16  1  0  0  0  0 
 15 17  1  0  0  0  0 
 17 18  1  0  0  0  0 
 17 19  2  0  0  0  0 
 10 19  1  0  0  0  0 
 19 20  1  0  0  0  0 
  9 21  1  0  0  0  0 
 21 22  2  0  0  0  0 
 22 23  1  0  0  0  0 
 22 24  1  0  0  0  0 
 24 25  1  0  0  0  0 
 24 26  2  0  0  0  0 
 26 27  1  0  0  0  0 
 27 28  1  0  0  0  0 
 27 29  2  0  0  0  0 
 21 29  1  0  0  0  0 
 29 30  1  0  0  0  0 
 26 31  1  0  0  0  0 
 31 32  1  0  0  0  0 
 32 33  1  0  0  0  0 
 32 34  1  0  0  0  0 
 32 35  1  0  0  0  0 
 35 36  1  0  0  0  0 
 35 37  1  0  0  0  0 
 37 38  1  0  0  0  0 
 38 39  1  0  0  0  0 
 38 40  1  0  0  0  0 
 38 41  1  0  0  0  0 
 37 42  1  0  0  0  0 
 42 43  1  0  0  0  0 
 42 44  1  0  0  0  0 
 42 45  1  0  0  0  0 
 35 46  1  0  0  0  0 
 46 47  1  0  0  0  0 
  8 48  1  0  0  0  0 
 48 49  2  0  0  0  0 
 49 50  1  0  0  0  0 
 49 51  1  0  0  0  0 
 51 52  1  0  0  0  0 
 51 53  2  0  0  0  0 
 53 54  1  0  0  0  0 
 53 55  1  0  0  0  0 
 55 56  1  0  0  0  0 
 55 57  2  0  0  0  0 
 48 57  1  0  0  0  0 
 57 58  1  0  0  0  0 
M  END
> <Rank>
22

> <Priority_score>
0.024

> <Reaction_type>
aliphatic hydroxylation

> <Parent_ID>
1

> <Parent_InChI>
InChI=1S/C26H29NO/c1-4-25(21-11-7-5-8-12-21)26(22-13-9-6-10-14-22)23-15-17-24(18-16-23)28-20-19-27(2)3/h5-18H,4,19-20H2,1-3H3

> <Parent_SMILES>
CC/C(=C(\C1=CC=CC=C1)/C2=CC=C(C=C2)OCCN(C)C)/C3=CC=CC=C3

$$$$
Molecule 1_metabolite 23
  CDK     0516241028

 58 60  0  0  0  0  0  0  0  0999 V2000
   -8.0561    5.0111    0.0000 C   0  0  0  0  0  0  0  0  0  0  0  0
   -8.8061    6.3101    0.0000 H   0  0  0  0  0  0  0  0  0  0  0  0
   -9.4657    4.4980    0.0000 H   0  0  0  0  0  0  0  0  0  0  0  0
   -7.7956    3.5338    0.0000 H   0  0  0  0  0  0  0  0  0  0  0  0
   -6.5561    5.0111    0.0000 C   0  0  0  0  0  0  0  0  0  0  0  0
   -5.1466    5.5241    0.0000 H   0  0  0  0  0  0  0  0  0  0  0  0
   -6.8166    6.4883    0.0000 H   0  0  0  0  0  0  0  0  0  0  0  0
   -5.8061    3.7120    0.0000 C   0  0  0  0  0  0  0  0  0  0  0  0
   -3.8261    3.7120    0.0000 C   0  0  0  0  0  0  0  0  0  0  0  0
   -2.8361    5.4267    0.0000 C   0  0  0  0  0  0  0  0  0  0  0  0
   -1.3353    5.4263    0.0000 C   0  0  0  0  0  0  0  0  0  0  0  0
   -0.5855    4.1271    0.0000 H   0  0  0  0  0  0  0  0  0  0  0  0
   -0.5853    6.7253    0.0000 C   0  0  0  0  0  0  0  0  0  0  0  0
    0.9147    6.7255    0.0000 H   0  0  0  0  0  0  0  0  0  0  0  0
   -1.3361    8.0248    0.0000 C   0  0  0  0  0  0  0  0  0  0  0  0
   -0.5861    9.3239    0.0000 H   0  0  0  0  0  0  0  0  0  0  0  0
   -2.8369    8.0253    0.0000 C   0  0  0  0  0  0  0  0  0  0  0  0
   -3.5867    9.3245    0.0000 H   0  0  0  0  0  0  0  0  0  0  0  0
   -3.5869    6.7263    0.0000 C   0  0  0  0  0  0  0  0  0  0  0  0
   -5.0869    6.7260    0.0000 H   0  0  0  0  0  0  0  0  0  0  0  0
   -2.5961    1.5816    0.0000 C   0  0  0  0  0  0  0  0  0  0  0  0
   -1.0961    1.5890    0.0000 C   0  0  0  0  0  0  0  0  0  0  0  0
   -0.3590    2.8953    0.0000 H   0  0  0  0  0  0  0  0  0  0  0  0
   -0.3399    0.3227    0.0000 C   0  0  0  0  0  0  0  0  0  0  0  0
    1.1599    0.3498    0.0000 H   0  0  0  0  0  0  0  0  0  0  0  0
   -1.0832   -1.0310    0.0000 C   0  0  0  0  0  0  0  0  0  0  0  0
   -2.5832   -1.0384    0.0000 C   0  0  0  0  0  0  0  0  0  0  0  0
   -3.3375   -2.3349    0.0000 H   0  0  0  0  0  0  0  0  0  0  0  0
   -3.3399    0.3079    0.0000 C   0  0  0  0  0  0  0  0  0  0  0  0
   -4.8398    0.3203    0.0000 H   0  0  0  0  0  0  0  0  0  0  0  0
   -0.3162   -2.3200    0.0000 O   0  0  0  0  0  0  0  0  0  0  0  0
    1.1837   -2.3003    0.0000 C   0  0  0  0  0  0  0  0  0  0  0  0
    2.5863   -1.7687    0.0000 H   0  0  0  0  0  0  0  0  0  0  0  0
    0.9038   -0.8266    0.0000 H   0  0  0  0  0  0  0  0  0  0  0  0
    1.9507   -3.5893    0.0000 C   0  0  0  0  0  0  0  0  0  0  0  0
    0.5481   -4.1209    0.0000 H   0  0  0  0  0  0  0  0  0  0  0  0
    2.2306   -5.0630    0.0000 H   0  0  0  0  0  0  0  0  0  0  0  0
    3.9306   -3.5632    0.0000 N   0  0  0  0  0  0  0  0  0  0  0  0
    4.6976   -4.8523    0.0000 C   0  0  0  0  0  0  0  0  0  0  0  0
    6.1975   -4.8325    0.0000 H   0  0  0  0  0  0  0  0  0  0  0  0
    3.2949   -5.3838    0.0000 H   0  0  0  0  0  0  0  0  0  0  0  0
    4.9775   -6.3259    0.0000 H   0  0  0  0  0  0  0  0  0  0  0  0
    4.6634   -2.2544    0.0000 C   0  0  0  0  0  0  0  0  0  0  0  0
    3.8963   -0.9654    0.0000 H   0  0  0  0  0  0  0  0  0  0  0  0
    5.7996   -1.2752    0.0000 H   0  0  0  0  0  0  0  0  0  0  0  0
    5.8250   -3.2034    0.0000 H   0  0  0  0  0  0  0  0  0  0  0  0
   -6.5561    2.4130    0.0000 C   0  0  0  0  0  0  0  0  0  0  0  0
   -8.0561    2.4127    0.0000 C   0  0  0  0  0  0  0  0  0  0  0  0
   -8.8059    1.1126    0.0000 C   0  0  0  0  0  0  0  0  0  0  0  0
  -10.3059    1.1124    0.0000 H   0  0  0  0  0  0  0  0  0  0  0  0
   -8.0557   -0.1873    0.0000 C   0  0  0  0  0  0  0  0  0  0  0  0
   -8.8057   -1.4863    0.0000 H   0  0  0  0  0  0  0  0  0  0  0  0
   -6.5557   -0.1870    0.0000 C   0  0  0  0  0  0  0  0  0  0  0  0
   -5.8053   -1.4858    0.0000 H   0  0  0  0  0  0  0  0  0  0  0  0
   -5.8059    1.1131    0.0000 C   0  0  0  0  0  0  0  0  0  0  0  0
   -3.3459    1.1135    0.0000 H   0  0  0  0  0  0  0  0  0  0  0  0
   -8.8065    3.7115    0.0000 O   0  0  0  0  0  0  0  0  0  0  0  0
  -10.3065    3.7111    0.0000 H   0  0  0  0  0  0  0  0  0  0  0  0
  1  2  1  0  0  0  0 
  1  3  1  0  0  0  0 
  1  4  1  0  0  0  0 
  1  5  1  0  0  0  0 
  5  6  1  0  0  0  0 
  5  7  1  0  0  0  0 
  5  8  1  0  0  0  0 
  8  9  2  0  0  0  0 
  9 10  1  0  0  0  0 
 10 11  2  0  0  0  0 
 11 12  1  0  0  0  0 
 11 13  1  0  0  0  0 
 13 14  1  0  0  0  0 
 13 15  2  0  0  0  0 
 15 16  1  0  0  0  0 
 15 17  1  0  0  0  0 
 17 18  1  0  0  0  0 
 17 19  2  0  0  0  0 
 10 19  1  0  0  0  0 
 19 20  1  0  0  0  0 
  9 21  1  0  0  0  0 
 21 22  2  0  0  0  0 
 22 23  1  0  0  0  0 
 22 24  1  0  0  0  0 
 24 25  1  0  0  0  0 
 24 26  2  0  0  0  0 
 26 27  1  0  0  0  0 
 27 28  1  0  0  0  0 
 27 29  2  0  0  0  0 
 21 29  1  0  0  0  0 
 29 30  1  0  0  0  0 
 26 31  1  0  0  0  0 
 31 32  1  0  0  0  0 
 32 33  1  0  0  0  0 
 32 34  1  0  0  0  0 
 32 35  1  0  0  0  0 
 35 36  1  0  0  0  0 
 35 37  1  0  0  0  0 
 35 38  1  0  0  0  0 
 38 39  1  0  0  0  0 
 39 40  1  0  0  0  0 
 39 41  1  0  0  0  0 
 39 42  1  0  0  0  0 
 38 43  1  0  0  0  0 
 43 44  1  0  0  0  0 
 43 45  1  0  0  0  0 
 43 46  1  0  0  0  0 
  8 47  1  0  0  0  0 
 47 48  2  0  0  0  0 
 48 49  1  0  0  0  0 
 49 50  1  0  0  0  0 
 49 51  2  0  0  0  0 
 51 52  1  0  0  0  0 
 51 53  1  0  0  0  0 
 53 54  1  0  0  0  0 
 53 55  2  0  0  0  0 
 47 55  1  0  0  0  0 
 55 56  1  0  0  0  0 
 48 57  1  0  0  0  0 
 57 58  1  0  0  0  0 
M  END
> <Rank>
23

> <Priority_score>
0.02

> <Reaction_type>
aromatic hydroxylation

> <Parent_ID>
1

> <Parent_InChI>
InChI=1S/C26H29NO/c1-4-25(21-11-7-5-8-12-21)26(22-13-9-6-10-14-22)23-15-17-24(18-16-23)28-20-19-27(2)3/h5-18H,4,19-20H2,1-3H3

> <Parent_SMILES>
CC/C(=C(\C1=CC=CC=C1)/C2=CC=C(C=C2)OCCN(C)C)/C3=CC=CC=C3

$$$$
Molecule 1_metabolite 24
  CDK     0516241028

 58 60  0  0  0  0  0  0  0  0999 V2000
   -8.0561    5.0110    0.0000 C   0  0  0  0  0  0  0  0  0  0  0  0
   -8.8061    6.3101    0.0000 H   0  0  0  0  0  0  0  0  0  0  0  0
   -9.4656    4.4980    0.0000 H   0  0  0  0  0  0  0  0  0  0  0  0
   -7.7956    3.5338    0.0000 H   0  0  0  0  0  0  0  0  0  0  0  0
   -6.5561    5.0110    0.0000 C   0  0  0  0  0  0  0  0  0  0  0  0
   -5.1466    5.5241    0.0000 H   0  0  0  0  0  0  0  0  0  0  0  0
   -6.8166    6.4882    0.0000 H   0  0  0  0  0  0  0  0  0  0  0  0
   -5.8061    3.7120    0.0000 C   0  0  0  0  0  0  0  0  0  0  0  0
   -3.8261    3.7120    0.0000 C   0  0  0  0  0  0  0  0  0  0  0  0
   -2.8361    5.4267    0.0000 C   0  0  0  0  0  0  0  0  0  0  0  0
   -1.3353    5.4262    0.0000 C   0  0  0  0  0  0  0  0  0  0  0  0
   -0.5855    4.1271    0.0000 H   0  0  0  0  0  0  0  0  0  0  0  0
   -0.5853    6.7253    0.0000 C   0  0  0  0  0  0  0  0  0  0  0  0
    0.9147    6.7255    0.0000 H   0  0  0  0  0  0  0  0  0  0  0  0
   -1.3361    8.0248    0.0000 C   0  0  0  0  0  0  0  0  0  0  0  0
   -0.5861    9.3238    0.0000 H   0  0  0  0  0  0  0  0  0  0  0  0
   -2.8369    8.0253    0.0000 C   0  0  0  0  0  0  0  0  0  0  0  0
   -3.5867    9.3244    0.0000 H   0  0  0  0  0  0  0  0  0  0  0  0
   -3.5869    6.7262    0.0000 C   0  0  0  0  0  0  0  0  0  0  0  0
   -5.0869    6.7260    0.0000 H   0  0  0  0  0  0  0  0  0  0  0  0
   -2.5961    1.5816    0.0000 C   0  0  0  0  0  0  0  0  0  0  0  0
   -1.0961    1.5889    0.0000 C   0  0  0  0  0  0  0  0  0  0  0  0
   -0.3589    2.8953    0.0000 H   0  0  0  0  0  0  0  0  0  0  0  0
   -0.3399    0.3227    0.0000 C   0  0  0  0  0  0  0  0  0  0  0  0
    1.1599    0.3498    0.0000 H   0  0  0  0  0  0  0  0  0  0  0  0
   -1.0832   -1.0310    0.0000 C   0  0  0  0  0  0  0  0  0  0  0  0
   -2.5832   -1.0384    0.0000 C   0  0  0  0  0  0  0  0  0  0  0  0
   -3.3375   -2.3349    0.0000 H   0  0  0  0  0  0  0  0  0  0  0  0
   -3.3398    0.3079    0.0000 C   0  0  0  0  0  0  0  0  0  0  0  0
   -4.8398    0.3203    0.0000 H   0  0  0  0  0  0  0  0  0  0  0  0
   -0.3162   -2.3201    0.0000 O   0  0  0  0  0  0  0  0  0  0  0  0
    1.1837   -2.3003    0.0000 C   0  0  0  0  0  0  0  0  0  0  0  0
    2.5863   -1.7688    0.0000 H   0  0  0  0  0  0  0  0  0  0  0  0
    1.9507   -3.5894    0.0000 C   0  0  0  0  0  0  0  0  0  0  0  0
    0.5481   -4.1209    0.0000 H   0  0  0  0  0  0  0  0  0  0  0  0
    2.2306   -5.0630    0.0000 H   0  0  0  0  0  0  0  0  0  0  0  0
    3.9306   -3.5633    0.0000 N   0  0  0  0  0  0  0  0  0  0  0  0
    4.6976   -4.8523    0.0000 C   0  0  0  0  0  0  0  0  0  0  0  0
    6.1975   -4.8326    0.0000 H   0  0  0  0  0  0  0  0  0  0  0  0
    3.2950   -5.3839    0.0000 H   0  0  0  0  0  0  0  0  0  0  0  0
    4.9775   -6.3260    0.0000 H   0  0  0  0  0  0  0  0  0  0  0  0
    4.6634   -2.2545    0.0000 C   0  0  0  0  0  0  0  0  0  0  0  0
    3.8963   -0.9654    0.0000 H   0  0  0  0  0  0  0  0  0  0  0  0
    5.7997   -1.2752    0.0000 H   0  0  0  0  0  0  0  0  0  0  0  0
    5.8251   -3.2034    0.0000 H   0  0  0  0  0  0  0  0  0  0  0  0
    0.9038   -0.8267    0.0000 O   0  0  0  0  0  0  0  0  0  0  0  0
    2.0400    0.1526    0.0000 H   0  0  0  0  0  0  0  0  0  0  0  0
   -6.5561    2.4129    0.0000 C   0  0  0  0  0  0  0  0  0  0  0  0
   -5.8053    1.1134    0.0000 C   0  0  0  0  0  0  0  0  0  0  0  0
   -3.3453    1.1138    0.0000 H   0  0  0  0  0  0  0  0  0  0  0  0
   -6.5553   -0.1856    0.0000 C   0  0  0  0  0  0  0  0  0  0  0  0
   -5.8055   -1.4848    0.0000 H   0  0  0  0  0  0  0  0  0  0  0  0
   -8.0561   -0.1851    0.0000 C   0  0  0  0  0  0  0  0  0  0  0  0
   -8.8061   -1.4842    0.0000 H   0  0  0  0  0  0  0  0  0  0  0  0
   -8.8069    1.1144    0.0000 C   0  0  0  0  0  0  0  0  0  0  0  0
  -10.3069    1.1142    0.0000 H   0  0  0  0  0  0  0  0  0  0  0  0
   -8.0569    2.4134    0.0000 C   0  0  0  0  0  0  0  0  0  0  0  0
   -8.8067    3.7126    0.0000 H   0  0  0  0  0  0  0  0  0  0  0  0
  1  2  1  0  0  0  0 
  1  3  1  0  0  0  0 
  1  4  1  0  0  0  0 
  1  5  1  0  0  0  0 
  5  6  1  0  0  0  0 
  5  7  1  0  0  0  0 
  5  8  1  0  0  0  0 
  8  9  2  0  0  0  0 
  9 10  1  0  0  0  0 
 10 11  2  0  0  0  0 
 11 12  1  0  0  0  0 
 11 13  1  0  0  0  0 
 13 14  1  0  0  0  0 
 13 15  2  0  0  0  0 
 15 16  1  0  0  0  0 
 15 17  1  0  0  0  0 
 17 18  1  0  0  0  0 
 17 19  2  0  0  0  0 
 10 19  1  0  0  0  0 
 19 20  1  0  0  0  0 
  9 21  1  0  0  0  0 
 21 22  2  0  0  0  0 
 22 23  1  0  0  0  0 
 22 24  1  0  0  0  0 
 24 25  1  0  0  0  0 
 24 26  2  0  0  0  0 
 26 27  1  0  0  0  0 
 27 28  1  0  0  0  0 
 27 29  2  0  0  0  0 
 21 29  1  0  0  0  0 
 29 30  1  0  0  0  0 
 26 31  1  0  0  0  0 
 31 32  1  0  0  0  0 
 32 33  1  0  0  0  0 
 32 34  1  0  0  0  0 
 34 35  1  0  0  0  0 
 34 36  1  0  0  0  0 
 34 37  1  0  0  0  0 
 37 38  1  0  0  0  0 
 38 39  1  0  0  0  0 
 38 40  1  0  0  0  0 
 38 41  1  0  0  0  0 
 37 42  1  0  0  0  0 
 42 43  1  0  0  0  0 
 42 44  1  0  0  0  0 
 42 45  1  0  0  0  0 
 32 46  1  0  0  0  0 
 46 47  1  0  0  0  0 
  8 48  1  0  0  0  0 
 48 49  2  0  0  0  0 
 49 50  1  0  0  0  0 
 49 51  1  0  0  0  0 
 51 52  1  0  0  0  0 
 51 53  2  0  0  0  0 
 53 54  1  0  0  0  0 
 53 55  1  0  0  0  0 
 55 56  1  0  0  0  0 
 55 57  2  0  0  0  0 
 48 57  1  0  0  0  0 
 57 58  1  0  0  0  0 
M  END
> <Rank>
24

> <Priority_score>
0.016

> <Reaction_type>
aliphatic hydroxylation

> <Parent_ID>
1

> <Parent_InChI>
InChI=1S/C26H29NO/c1-4-25(21-11-7-5-8-12-21)26(22-13-9-6-10-14-22)23-15-17-24(18-16-23)28-20-19-27(2)3/h5-18H,4,19-20H2,1-3H3

> <Parent_SMILES>
CC/C(=C(\C1=CC=CC=C1)/C2=CC=C(C=C2)OCCN(C)C)/C3=CC=CC=C3

$$$$
Molecule 1_metabolite 25
  CDK     0516241028

 15 14  0  0  0  0  0  0  0  0999 V2000
    5.0180    1.4095    0.0000 C   0  0  0  0  0  0  0  0  0  0  0  0
    5.0180    2.9095    0.0000 H   0  0  0  0  0  0  0  0  0  0  0  0
    6.4952    1.6700    0.0000 H   0  0  0  0  0  0  0  0  0  0  0  0
    5.5310   -0.0000    0.0000 H   0  0  0  0  0  0  0  0  0  0  0  0
    3.7189    0.6595    0.0000 N   0  0  0  0  0  0  0  0  0  0  0  0
    3.7189   -0.8405    0.0000 C   0  0  0  0  0  0  0  0  0  0  0  0
    5.0180   -1.5905    0.0000 H   0  0  0  0  0  0  0  0  0  0  0  0
    2.2417   -0.5800    0.0000 H   0  0  0  0  0  0  0  0  0  0  0  0
    3.2059   -2.2500    0.0000 H   0  0  0  0  0  0  0  0  0  0  0  0
    2.4199    1.4095    0.0000 C   0  0  0  0  0  0  0  0  0  0  0  0
    3.3841    2.5586    0.0000 H   0  0  0  0  0  0  0  0  0  0  0  0
    1.4557    2.5586    0.0000 H   0  0  0  0  0  0  0  0  0  0  0  0
    1.1209    0.6595    0.0000 C   0  0  0  0  0  0  0  0  0  0  0  0
   -0.1782    1.4095    0.0000 H   0  0  0  0  0  0  0  0  0  0  0  0
    1.1209   -0.8405    0.0000 O   0  0  0  0  0  0  0  0  0  0  0  0
  1  2  1  0  0  0  0 
  1  3  1  0  0  0  0 
  1  4  1  0  0  0  0 
  1  5  1  0  0  0  0 
  5  6  1  0  0  0  0 
  6  7  1  0  0  0  0 
  6  8  1  0  0  0  0 
  6  9  1  0  0  0  0 
  5 10  1  0  0  0  0 
 10 11  1  0  0  0  0 
 10 12  1  0  0  0  0 
 10 13  1  0  0  0  0 
 13 14  1  0  0  0  0 
 13 15  2  0  0  0  0 
M  END
> <Rank>
24

> <Priority_score>
0.016

> <Reaction_type>
oxidative ether cleavage to one alcohol and one aldehyde/ketone

> <Parent_ID>
1

> <Parent_InChI>
InChI=1S/C26H29NO/c1-4-25(21-11-7-5-8-12-21)26(22-13-9-6-10-14-22)23-15-17-24(18-16-23)28-20-19-27(2)3/h5-18H,4,19-20H2,1-3H3

> <Parent_SMILES>
CC/C(=C(\C1=CC=CC=C1)/C2=CC=C(C=C2)OCCN(C)C)/C3=CC=CC=C3

$$$$
Molecule 1_metabolite 26
  CDK     0516241028

 17 16  0  0  0  0  0  0  0  0999 V2000
    1.2990   -1.2300    0.0000 C   0  0  0  0  0  0  0  0  0  0  0  0
    1.2990   -2.7300    0.0000 H   0  0  0  0  0  0  0  0  0  0  0  0
   -0.1782   -1.4905    0.0000 H   0  0  0  0  0  0  0  0  0  0  0  0
    0.7860    0.1795    0.0000 H   0  0  0  0  0  0  0  0  0  0  0  0
    2.5981   -0.4800    0.0000 N   0  0  0  0  0  0  0  0  0  0  0  0
    2.5981    1.5000    0.0000 C   0  0  0  0  0  0  0  0  0  0  0  0
    3.8971    2.2500    0.0000 H   0  0  0  0  0  0  0  0  0  0  0  0
    1.1209    1.2395    0.0000 H   0  0  0  0  0  0  0  0  0  0  0  0
    2.0850    2.9095    0.0000 H   0  0  0  0  0  0  0  0  0  0  0  0
    3.8971   -1.2300    0.0000 C   0  0  0  0  0  0  0  0  0  0  0  0
    2.9329   -2.3791    0.0000 H   0  0  0  0  0  0  0  0  0  0  0  0
    4.8613   -2.3791    0.0000 H   0  0  0  0  0  0  0  0  0  0  0  0
    5.1962   -0.4800    0.0000 C   0  0  0  0  0  0  0  0  0  0  0  0
    6.1603    0.6691    0.0000 H   0  0  0  0  0  0  0  0  0  0  0  0
    4.2320    0.6691    0.0000 H   0  0  0  0  0  0  0  0  0  0  0  0
    6.4952   -1.2300    0.0000 O   0  0  0  0  0  0  0  0  0  0  0  0
    7.7942   -0.4800    0.0000 H   0  0  0  0  0  0  0  0  0  0  0  0
  1  2  1  0  0  0  0 
  1  3  1  0  0  0  0 
  1  4  1  0  0  0  0 
  1  5  1  0  0  0  0 
  5  6  1  0  0  0  0 
  6  7  1  0  0  0  0 
  6  8  1  0  0  0  0 
  6  9  1  0  0  0  0 
  5 10  1  0  0  0  0 
 10 11  1  0  0  0  0 
 10 12  1  0  0  0  0 
 10 13  1  0  0  0  0 
 13 14  1  0  0  0  0 
 13 15  1  0  0  0  0 
 13 16  1  0  0  0  0 
 16 17  1  0  0  0  0 
M  END
> <Rank>
24

> <Priority_score>
0.016

> <Reaction_type>
O-dealkylation_(aromatic)

> <Parent_ID>
1

> <Parent_InChI>
InChI=1S/C26H29NO/c1-4-25(21-11-7-5-8-12-21)26(22-13-9-6-10-14-22)23-15-17-24(18-16-23)28-20-19-27(2)3/h5-18H,4,19-20H2,1-3H3

> <Parent_SMILES>
CC/C(=C(\C1=CC=CC=C1)/C2=CC=C(C=C2)OCCN(C)C)/C3=CC=CC=C3

$$$$
Molecule 1_metabolite 27
  CDK     0516241028

 43 45  0  0  0  0  0  0  0  0999 V2000
   -7.1711    2.5997    0.0000 C   0  0  0  0  0  0  0  0  0  0  0  0
   -8.4702    3.3497    0.0000 H   0  0  0  0  0  0  0  0  0  0  0  0
   -8.1353    1.4506    0.0000 H   0  0  0  0  0  0  0  0  0  0  0  0
   -6.2070    1.4506    0.0000 H   0  0  0  0  0  0  0  0  0  0  0  0
   -5.8721    3.3497    0.0000 C   0  0  0  0  0  0  0  0  0  0  0  0
   -4.9079    4.4987    0.0000 H   0  0  0  0  0  0  0  0  0  0  0  0
   -6.8363    4.4987    0.0000 H   0  0  0  0  0  0  0  0  0  0  0  0
   -4.5731    2.5997    0.0000 C   0  0  0  0  0  0  0  0  0  0  0  0
   -2.8583    3.5897    0.0000 C   0  0  0  0  0  0  0  0  0  0  0  0
   -2.8583    5.5697    0.0000 C   0  0  0  0  0  0  0  0  0  0  0  0
   -1.5583    6.3197    0.0000 C   0  0  0  0  0  0  0  0  0  0  0  0
   -0.2594    5.5694    0.0000 H   0  0  0  0  0  0  0  0  0  0  0  0
   -1.5583    7.8197    0.0000 C   0  0  0  0  0  0  0  0  0  0  0  0
   -0.2594    8.5699    0.0000 H   0  0  0  0  0  0  0  0  0  0  0  0
   -2.8583    8.5697    0.0000 C   0  0  0  0  0  0  0  0  0  0  0  0
   -2.8583   10.0697    0.0000 H   0  0  0  0  0  0  0  0  0  0  0  0
   -4.1583    7.8197    0.0000 C   0  0  0  0  0  0  0  0  0  0  0  0
   -5.4573    8.5699    0.0000 H   0  0  0  0  0  0  0  0  0  0  0  0
   -4.1583    6.3197    0.0000 C   0  0  0  0  0  0  0  0  0  0  0  0
   -5.4573    5.5694    0.0000 H   0  0  0  0  0  0  0  0  0  0  0  0
   -0.7279    2.3597    0.0000 C   0  0  0  0  0  0  0  0  0  0  0  0
    0.5674    3.1160    0.0000 C   0  0  0  0  0  0  0  0  0  0  0  0
    0.5527    4.6160    0.0000 H   0  0  0  0  0  0  0  0  0  0  0  0
    1.8555    2.3975    0.0000 C   0  0  0  0  0  0  0  0  0  0  0  0
    3.1407    3.1709    0.0000 H   0  0  0  0  0  0  0  0  0  0  0  0
    1.8886    0.8535    0.0000 C   0  0  0  0  0  0  0  0  0  0  0  0
    0.5932    0.0971    0.0000 C   0  0  0  0  0  0  0  0  0  0  0  0
    0.5882   -1.4029    0.0000 H   0  0  0  0  0  0  0  0  0  0  0  0
   -0.7352    0.8847    0.0000 C   0  0  0  0  0  0  0  0  0  0  0  0
   -2.0404    0.1455    0.0000 H   0  0  0  0  0  0  0  0  0  0  0  0
    3.1974    0.1207    0.0000 O   0  0  0  0  0  0  0  0  0  0  0  0
    4.4864    0.8877    0.0000 H   0  0  0  0  0  0  0  0  0  0  0  0
   -4.5731    1.0997    0.0000 C   0  0  0  0  0  0  0  0  0  0  0  0
   -3.2731    0.3497    0.0000 C   0  0  0  0  0  0  0  0  0  0  0  0
   -1.1428    1.5800    0.0000 H   0  0  0  0  0  0  0  0  0  0  0  0
   -3.2731   -1.1503    0.0000 C   0  0  0  0  0  0  0  0  0  0  0  0
   -1.9741   -1.9006    0.0000 H   0  0  0  0  0  0  0  0  0  0  0  0
   -4.5731   -1.9003    0.0000 C   0  0  0  0  0  0  0  0  0  0  0  0
   -4.5731   -3.4003    0.0000 H   0  0  0  0  0  0  0  0  0  0  0  0
   -5.8731   -1.1503    0.0000 C   0  0  0  0  0  0  0  0  0  0  0  0
   -7.1720   -1.9006    0.0000 H   0  0  0  0  0  0  0  0  0  0  0  0
   -5.8731    0.3497    0.0000 C   0  0  0  0  0  0  0  0  0  0  0  0
   -7.1720    1.0999    0.0000 H   0  0  0  0  0  0  0  0  0  0  0  0
  1  2  1  0  0  0  0 
  1  3  1  0  0  0  0 
  1  4  1  0  0  0  0 
  1  5  1  0  0  0  0 
  5  6  1  0  0  0  0 
  5  7  1  0  0  0  0 
  5  8  1  0  0  0  0 
  8  9  2  0  0  0  0 
  9 10  1  0  0  0  0 
 10 11  2  0  0  0  0 
 11 12  1  0  0  0  0 
 11 13  1  0  0  0  0 
 13 14  1  0  0  0  0 
 13 15  2  0  0  0  0 
 15 16  1  0  0  0  0 
 15 17  1  0  0  0  0 
 17 18  1  0  0  0  0 
 17 19  2  0  0  0  0 
 10 19  1  0  0  0  0 
 19 20  1  0  0  0  0 
  9 21  1  0  0  0  0 
 21 22  2  0  0  0  0 
 22 23  1  0  0  0  0 
 22 24  1  0  0  0  0 
 24 25  1  0  0  0  0 
 24 26  2  0  0  0  0 
 26 27  1  0  0  0  0 
 27 28  1  0  0  0  0 
 27 29  2  0  0  0  0 
 21 29  1  0  0  0  0 
 29 30  1  0  0  0  0 
 26 31  1  0  0  0  0 
 31 32  1  0  0  0  0 
  8 33  1  0  0  0  0 
 33 34  2  0  0  0  0 
 34 35  1  0  0  0  0 
 34 36  1  0  0  0  0 
 36 37  1  0  0  0  0 
 36 38  2  0  0  0  0 
 38 39  1  0  0  0  0 
 38 40  1  0  0  0  0 
 40 41  1  0  0  0  0 
 40 42  2  0  0  0  0 
 33 42  1  0  0  0  0 
 42 43  1  0  0  0  0 
M  END
> <Rank>
24

> <Priority_score>
0.016

> <Reaction_type>
O-dealkylation_(aromatic)

> <Parent_ID>
1

> <Parent_InChI>
InChI=1S/C26H29NO/c1-4-25(21-11-7-5-8-12-21)26(22-13-9-6-10-14-22)23-15-17-24(18-16-23)28-20-19-27(2)3/h5-18H,4,19-20H2,1-3H3

> <Parent_SMILES>
CC/C(=C(\C1=CC=CC=C1)/C2=CC=C(C=C2)OCCN(C)C)/C3=CC=CC=C3

$$$$
Molecule 1_metabolite 28
  CDK     0516241028

 58 60  0  0  0  0  0  0  0  0999 V2000
   -8.6330    1.1732    0.0000 C   0  0  0  0  0  0  0  0  0  0  0  0
   -9.9320    1.9232    0.0000 H   0  0  0  0  0  0  0  0  0  0  0  0
   -9.5972    0.0242    0.0000 H   0  0  0  0  0  0  0  0  0  0  0  0
   -7.6688    0.0242    0.0000 H   0  0  0  0  0  0  0  0  0  0  0  0
   -7.3339    1.9232    0.0000 C   0  0  0  0  0  0  0  0  0  0  0  0
   -6.3698    3.0723    0.0000 H   0  0  0  0  0  0  0  0  0  0  0  0
   -8.2981    3.0723    0.0000 H   0  0  0  0  0  0  0  0  0  0  0  0
   -6.0349    1.1732    0.0000 C   0  0  0  0  0  0  0  0  0  0  0  0
   -4.3202    2.1632    0.0000 C   0  0  0  0  0  0  0  0  0  0  0  0
   -4.3202    3.6632    0.0000 C   0  0  0  0  0  0  0  0  0  0  0  0
   -3.0202    4.4132    0.0000 C   0  0  0  0  0  0  0  0  0  0  0  0
   -1.7213    3.6630    0.0000 H   0  0  0  0  0  0  0  0  0  0  0  0
   -3.0202    5.9132    0.0000 C   0  0  0  0  0  0  0  0  0  0  0  0
   -1.7213    6.6634    0.0000 H   0  0  0  0  0  0  0  0  0  0  0  0
   -4.3202    6.6632    0.0000 C   0  0  0  0  0  0  0  0  0  0  0  0
   -4.3202    8.1632    0.0000 H   0  0  0  0  0  0  0  0  0  0  0  0
   -5.6202    5.9132    0.0000 C   0  0  0  0  0  0  0  0  0  0  0  0
   -6.9191    6.6634    0.0000 H   0  0  0  0  0  0  0  0  0  0  0  0
   -5.6202    4.4132    0.0000 C   0  0  0  0  0  0  0  0  0  0  0  0
   -6.9191    3.6630    0.0000 H   0  0  0  0  0  0  0  0  0  0  0  0
   -2.1898    0.9332    0.0000 C   0  0  0  0  0  0  0  0  0  0  0  0
   -2.1902   -0.5676    0.0000 C   0  0  0  0  0  0  0  0  0  0  0  0
   -3.4894   -1.3174    0.0000 H   0  0  0  0  0  0  0  0  0  0  0  0
   -0.8912   -1.3176    0.0000 C   0  0  0  0  0  0  0  0  0  0  0  0
   -0.8910   -2.8176    0.0000 H   0  0  0  0  0  0  0  0  0  0  0  0
    0.4083   -0.5668    0.0000 C   0  0  0  0  0  0  0  0  0  0  0  0
    0.4088    0.9341    0.0000 C   0  0  0  0  0  0  0  0  0  0  0  0
   -0.8902    1.6841    0.0000 C   0  0  0  0  0  0  0  0  0  0  0  0
   -0.6300    3.1613    0.0000 H   0  0  0  0  0  0  0  0  0  0  0  0
    1.7080    1.6838    0.0000 O   0  0  0  0  0  0  0  0  0  0  0  0
    3.0069    0.9336    0.0000 H   0  0  0  0  0  0  0  0  0  0  0  0
    1.7074   -1.3168    0.0000 O   0  0  0  0  0  0  0  0  0  0  0  0
    3.0064   -0.5668    0.0000 C   0  0  0  0  0  0  0  0  0  0  0  0
    3.9706    0.5823    0.0000 H   0  0  0  0  0  0  0  0  0  0  0  0
    2.0422    0.5823    0.0000 H   0  0  0  0  0  0  0  0  0  0  0  0
    4.3054   -1.3168    0.0000 C   0  0  0  0  0  0  0  0  0  0  0  0
    3.3413   -2.4658    0.0000 H   0  0  0  0  0  0  0  0  0  0  0  0
    5.2696   -2.4658    0.0000 H   0  0  0  0  0  0  0  0  0  0  0  0
    6.0202   -0.3268    0.0000 N   0  0  0  0  0  0  0  0  0  0  0  0
    7.3192   -1.0768    0.0000 C   0  0  0  0  0  0  0  0  0  0  0  0
    8.6182   -0.3268    0.0000 H   0  0  0  0  0  0  0  0  0  0  0  0
    6.3550   -2.2258    0.0000 H   0  0  0  0  0  0  0  0  0  0  0  0
    8.2834   -2.2258    0.0000 H   0  0  0  0  0  0  0  0  0  0  0  0
    6.0202    1.1732    0.0000 C   0  0  0  0  0  0  0  0  0  0  0  0
    4.7211    1.9232    0.0000 H   0  0  0  0  0  0  0  0  0  0  0  0
    6.5332    2.5828    0.0000 H   0  0  0  0  0  0  0  0  0  0  0  0
    7.4974    0.9128    0.0000 H   0  0  0  0  0  0  0  0  0  0  0  0
   -6.0349   -0.3268    0.0000 C   0  0  0  0  0  0  0  0  0  0  0  0
   -4.7349   -1.0768    0.0000 C   0  0  0  0  0  0  0  0  0  0  0  0
   -3.4360   -0.3266    0.0000 H   0  0  0  0  0  0  0  0  0  0  0  0
   -4.7349   -2.5768    0.0000 C   0  0  0  0  0  0  0  0  0  0  0  0
   -3.4360   -3.3270    0.0000 H   0  0  0  0  0  0  0  0  0  0  0  0
   -6.0349   -3.3268    0.0000 C   0  0  0  0  0  0  0  0  0  0  0  0
   -6.0349   -4.8268    0.0000 H   0  0  0  0  0  0  0  0  0  0  0  0
   -7.3349   -2.5768    0.0000 C   0  0  0  0  0  0  0  0  0  0  0  0
   -8.6338   -3.3270    0.0000 H   0  0  0  0  0  0  0  0  0  0  0  0
   -7.3349   -1.0768    0.0000 C   0  0  0  0  0  0  0  0  0  0  0  0
   -8.6338   -0.3266    0.0000 H   0  0  0  0  0  0  0  0  0  0  0  0
  1  2  1  0  0  0  0 
  1  3  1  0  0  0  0 
  1  4  1  0  0  0  0 
  1  5  1  0  0  0  0 
  5  6  1  0  0  0  0 
  5  7  1  0  0  0  0 
  5  8  1  0  0  0  0 
  8  9  2  0  0  0  0 
  9 10  1  0  0  0  0 
 10 11  2  0  0  0  0 
 11 12  1  0  0  0  0 
 11 13  1  0  0  0  0 
 13 14  1  0  0  0  0 
 13 15  2  0  0  0  0 
 15 16  1  0  0  0  0 
 15 17  1  0  0  0  0 
 17 18  1  0  0  0  0 
 17 19  2  0  0  0  0 
 10 19  1  0  0  0  0 
 19 20  1  0  0  0  0 
  9 21  1  0  0  0  0 
 21 22  2  0  0  0  0 
 22 23  1  0  0  0  0 
 22 24  1  0  0  0  0 
 24 25  1  0  0  0  0 
 24 26  2  0  0  0  0 
 26 27  1  0  0  0  0 
 27 28  2  0  0  0  0 
 21 28  1  0  0  0  0 
 28 29  1  0  0  0  0 
 27 30  1  0  0  0  0 
 30 31  1  0  0  0  0 
 26 32  1  0  0  0  0 
 32 33  1  0  0  0  0 
 33 34  1  0  0  0  0 
 33 35  1  0  0  0  0 
 33 36  1  0  0  0  0 
 36 37  1  0  0  0  0 
 36 38  1  0  0  0  0 
 36 39  1  0  0  0  0 
 39 40  1  0  0  0  0 
 40 41  1  0  0  0  0 
 40 42  1  0  0  0  0 
 40 43  1  0  0  0  0 
 39 44  1  0  0  0  0 
 44 45  1  0  0  0  0 
 44 46  1  0  0  0  0 
 44 47  1  0  0  0  0 
  8 48  1  0  0  0  0 
 48 49  2  0  0  0  0 
 49 50  1  0  0  0  0 
 49 51  1  0  0  0  0 
 51 52  1  0  0  0  0 
 51 53  2  0  0  0  0 
 53 54  1  0  0  0  0 
 53 55  1  0  0  0  0 
 55 56  1  0  0  0  0 
 55 57  2  0  0  0  0 
 48 57  1  0  0  0  0 
 57 58  1  0  0  0  0 
M  END
> <Rank>
28

> <Priority_score>
0.012

> <Reaction_type>
aromatic_hydroxylation_(ortho_to_oxygen)

> <Parent_ID>
1

> <Parent_InChI>
InChI=1S/C26H29NO/c1-4-25(21-11-7-5-8-12-21)26(22-13-9-6-10-14-22)23-15-17-24(18-16-23)28-20-19-27(2)3/h5-18H,4,19-20H2,1-3H3

> <Parent_SMILES>
CC/C(=C(\C1=CC=CC=C1)/C2=CC=C(C=C2)OCCN(C)C)/C3=CC=CC=C3

$$$$
Molecule 1_metabolite 29
  CDK     0516241028

 55 57  0  0  0  0  0  0  0  0999 V2000
   -7.5941    4.8498    0.0000 C   0  0  0  0  0  0  0  0  0  0  0  0
   -8.3441    6.1488    0.0000 H   0  0  0  0  0  0  0  0  0  0  0  0
   -9.0036    4.3367    0.0000 H   0  0  0  0  0  0  0  0  0  0  0  0
   -7.3336    3.3725    0.0000 H   0  0  0  0  0  0  0  0  0  0  0  0
   -6.0941    4.8498    0.0000 C   0  0  0  0  0  0  0  0  0  0  0  0
   -4.6845    5.3628    0.0000 H   0  0  0  0  0  0  0  0  0  0  0  0
   -6.3545    6.3270    0.0000 H   0  0  0  0  0  0  0  0  0  0  0  0
   -5.3441    3.5507    0.0000 C   0  0  0  0  0  0  0  0  0  0  0  0
   -3.3641    3.5507    0.0000 C   0  0  0  0  0  0  0  0  0  0  0  0
   -2.3741    5.2654    0.0000 C   0  0  0  0  0  0  0  0  0  0  0  0
   -0.8732    5.2650    0.0000 C   0  0  0  0  0  0  0  0  0  0  0  0
   -0.1234    3.9658    0.0000 H   0  0  0  0  0  0  0  0  0  0  0  0
   -0.1232    6.5640    0.0000 C   0  0  0  0  0  0  0  0  0  0  0  0
    1.3768    6.5642    0.0000 H   0  0  0  0  0  0  0  0  0  0  0  0
   -0.8741    7.8635    0.0000 C   0  0  0  0  0  0  0  0  0  0  0  0
   -0.1241    9.1626    0.0000 H   0  0  0  0  0  0  0  0  0  0  0  0
   -2.3749    7.8640    0.0000 C   0  0  0  0  0  0  0  0  0  0  0  0
   -3.1247    9.1632    0.0000 H   0  0  0  0  0  0  0  0  0  0  0  0
   -3.1249    6.5650    0.0000 C   0  0  0  0  0  0  0  0  0  0  0  0
   -4.6249    6.5647    0.0000 H   0  0  0  0  0  0  0  0  0  0  0  0
   -2.1341    1.4203    0.0000 C   0  0  0  0  0  0  0  0  0  0  0  0
   -0.6341    1.4277    0.0000 C   0  0  0  0  0  0  0  0  0  0  0  0
    0.1031    2.7340    0.0000 H   0  0  0  0  0  0  0  0  0  0  0  0
    0.1222    0.1614    0.0000 C   0  0  0  0  0  0  0  0  0  0  0  0
    1.6219    0.1885    0.0000 H   0  0  0  0  0  0  0  0  0  0  0  0
   -0.6212   -1.1923    0.0000 C   0  0  0  0  0  0  0  0  0  0  0  0
   -2.1212   -1.1997    0.0000 C   0  0  0  0  0  0  0  0  0  0  0  0
   -2.8755   -2.4962    0.0000 H   0  0  0  0  0  0  0  0  0  0  0  0
   -2.8778    0.1466    0.0000 C   0  0  0  0  0  0  0  0  0  0  0  0
   -4.3778    0.1590    0.0000 H   0  0  0  0  0  0  0  0  0  0  0  0
    0.1458   -2.4813    0.0000 O   0  0  0  0  0  0  0  0  0  0  0  0
    1.6457   -2.4616    0.0000 C   0  0  0  0  0  0  0  0  0  0  0  0
    2.3785   -1.1528    0.0000 H   0  0  0  0  0  0  0  0  0  0  0  0
    2.4128   -3.7506    0.0000 C   0  0  0  0  0  0  0  0  0  0  0  0
    1.6799   -5.0594    0.0000 H   0  0  0  0  0  0  0  0  0  0  0  0
    3.9126   -3.7309    0.0000 N   0  0  0  0  0  0  0  0  0  0  0  0
    4.6797   -5.0199    0.0000 C   0  0  0  0  0  0  0  0  0  0  0  0
    6.1796   -5.0002    0.0000 H   0  0  0  0  0  0  0  0  0  0  0  0
    3.2770   -5.5515    0.0000 H   0  0  0  0  0  0  0  0  0  0  0  0
    4.9596   -6.4936    0.0000 H   0  0  0  0  0  0  0  0  0  0  0  0
    4.6455   -2.4221    0.0000 C   0  0  0  0  0  0  0  0  0  0  0  0
    6.1453   -2.4023    0.0000 H   0  0  0  0  0  0  0  0  0  0  0  0
    4.8865   -0.9416    0.0000 H   0  0  0  0  0  0  0  0  0  0  0  0
    3.2293   -1.9276    0.0000 H   0  0  0  0  0  0  0  0  0  0  0  0
   -6.0941    2.2517    0.0000 C   0  0  0  0  0  0  0  0  0  0  0  0
   -5.3432    0.9522    0.0000 C   0  0  0  0  0  0  0  0  0  0  0  0
   -2.8832    0.9526    0.0000 H   0  0  0  0  0  0  0  0  0  0  0  0
   -6.0932   -0.3469    0.0000 C   0  0  0  0  0  0  0  0  0  0  0  0
   -5.3434   -1.6460    0.0000 H   0  0  0  0  0  0  0  0  0  0  0  0
   -7.5941   -0.3464    0.0000 C   0  0  0  0  0  0  0  0  0  0  0  0
   -8.3441   -1.6454    0.0000 H   0  0  0  0  0  0  0  0  0  0  0  0
   -8.3449    0.9531    0.0000 C   0  0  0  0  0  0  0  0  0  0  0  0
   -9.8449    0.9529    0.0000 H   0  0  0  0  0  0  0  0  0  0  0  0
   -7.5949    2.2522    0.0000 C   0  0  0  0  0  0  0  0  0  0  0  0
   -8.3447    3.5513    0.0000 H   0  0  0  0  0  0  0  0  0  0  0  0
  1  2  1  0  0  0  0 
  1  3  1  0  0  0  0 
  1  4  1  0  0  0  0 
  1  5  1  0  0  0  0 
  5  6  1  0  0  0  0 
  5  7  1  0  0  0  0 
  5  8  1  0  0  0  0 
  8  9  2  0  0  0  0 
  9 10  1  0  0  0  0 
 10 11  2  0  0  0  0 
 11 12  1  0  0  0  0 
 11 13  1  0  0  0  0 
 13 14  1  0  0  0  0 
 13 15  2  0  0  0  0 
 15 16  1  0  0  0  0 
 15 17  1  0  0  0  0 
 17 18  1  0  0  0  0 
 17 19  2  0  0  0  0 
 10 19  1  0  0  0  0 
 19 20  1  0  0  0  0 
  9 21  1  0  0  0  0 
 21 22  2  0  0  0  0 
 22 23  1  0  0  0  0 
 22 24  1  0  0  0  0 
 24 25  1  0  0  0  0 
 24 26  2  0  0  0  0 
 26 27  1  0  0  0  0 
 27 28  1  0  0  0  0 
 27 29  2  0  0  0  0 
 21 29  1  0  0  0  0 
 29 30  1  0  0  0  0 
 26 31  1  0  0  0  0 
 31 32  1  0  0  0  0 
 32 33  1  4  0  0  0 
 32 34  2  0  0  0  0 
 34 35  1  0  0  0  0 
 34 36  1  0  0  0  0 
 36 37  1  0  0  0  0 
 37 38  1  0  0  0  0 
 37 39  1  0  0  0  0 
 37 40  1  0  0  0  0 
 36 41  1  0  0  0  0 
 41 42  1  0  0  0  0 
 41 43  1  0  0  0  0 
 41 44  1  0  0  0  0 
  8 45  1  0  0  0  0 
 45 46  2  0  0  0  0 
 46 47  1  0  0  0  0 
 46 48  1  0  0  0  0 
 48 49  1  0  0  0  0 
 48 50  2  0  0  0  0 
 50 51  1  0  0  0  0 
 50 52  1  0  0  0  0 
 52 53  1  0  0  0  0 
 52 54  2  0  0  0  0 
 45 54  1  0  0  0  0 
 54 55  1  0  0  0  0 
M  END
> <Rank>
29

> <Priority_score>
0.0048000000000000004

> <Reaction_type>
alkyl dehydrogenation

> <Parent_ID>
1

> <Parent_InChI>
InChI=1S/C26H29NO/c1-4-25(21-11-7-5-8-12-21)26(22-13-9-6-10-14-22)23-15-17-24(18-16-23)28-20-19-27(2)3/h5-18H,4,19-20H2,1-3H3

> <Parent_SMILES>
CC/C(=C(\C1=CC=CC=C1)/C2=CC=C(C=C2)OCCN(C)C)/C3=CC=CC=C3

$$$$
Molecule 1_metabolite 30
  CDK     0516241028

 58 60  0  0  0  0  0  0  0  0999 V2000
    7.7330    1.8127    0.0000 C   0  0  0  0  0  0  0  0  0  0  0  0
    9.0283    1.0564    0.0000 H   0  0  0  0  0  0  0  0  0  0  0  0
    8.7028    2.9571    0.0000 H   0  0  0  0  0  0  0  0  0  0  0  0
    6.7745    2.9665    0.0000 H   0  0  0  0  0  0  0  0  0  0  0  0
    6.4303    1.0692    0.0000 C   0  0  0  0  0  0  0  0  0  0  0  0
    5.4604   -0.0752    0.0000 H   0  0  0  0  0  0  0  0  0  0  0  0
    7.3888   -0.0846    0.0000 H   0  0  0  0  0  0  0  0  0  0  0  0
    5.1349    1.8255    0.0000 C   0  0  0  0  0  0  0  0  0  0  0  0
    3.4153    0.8440    0.0000 C   0  0  0  0  0  0  0  0  0  0  0  0
    1.2910    2.0845    0.0000 C   0  0  0  0  0  0  0  0  0  0  0  0
   -0.0080    1.3345    0.0000 C   0  0  0  0  0  0  0  0  0  0  0  0
   -0.0006   -0.1655    0.0000 H   0  0  0  0  0  0  0  0  0  0  0  0
   -1.2926    2.0593    0.0000 C   0  0  0  0  0  0  0  0  0  0  0  0
   -2.5816    1.2923    0.0000 H   0  0  0  0  0  0  0  0  0  0  0  0
   -1.3180    3.6034    0.0000 C   0  0  0  0  0  0  0  0  0  0  0  0
   -0.0190    4.3534    0.0000 C   0  0  0  0  0  0  0  0  0  0  0  0
   -0.0066    5.8534    0.0000 H   0  0  0  0  0  0  0  0  0  0  0  0
    1.3055    3.5593    0.0000 C   0  0  0  0  0  0  0  0  0  0  0  0
    2.6143    4.2921    0.0000 H   0  0  0  0  0  0  0  0  0  0  0  0
   -2.6232    4.3427    0.0000 O   0  0  0  0  0  0  0  0  0  0  0  0
   -3.9160    3.5820    0.0000 C   0  0  0  0  0  0  0  0  0  0  0  0
   -4.8707    2.4250    0.0000 H   0  0  0  0  0  0  0  0  0  0  0  0
   -2.9424    2.4409    0.0000 H   0  0  0  0  0  0  0  0  0  0  0  0
   -5.2212    4.3213    0.0000 C   0  0  0  0  0  0  0  0  0  0  0  0
   -4.2665    5.4783    0.0000 H   0  0  0  0  0  0  0  0  0  0  0  0
   -6.1948    5.4623    0.0000 H   0  0  0  0  0  0  0  0  0  0  0  0
   -6.9277    3.3172    0.0000 N   0  0  0  0  0  0  0  0  0  0  0  0
   -8.2329    4.0564    0.0000 C   0  0  0  0  0  0  0  0  0  0  0  0
   -9.5257    3.2957    0.0000 H   0  0  0  0  0  0  0  0  0  0  0  0
   -7.2782    5.2134    0.0000 H   0  0  0  0  0  0  0  0  0  0  0  0
   -9.2065    5.1975    0.0000 H   0  0  0  0  0  0  0  0  0  0  0  0
   -6.9153    1.8172    0.0000 C   0  0  0  0  0  0  0  0  0  0  0  0
   -5.6101    1.0780    0.0000 H   0  0  0  0  0  0  0  0  0  0  0  0
   -7.4167    0.4035    0.0000 H   0  0  0  0  0  0  0  0  0  0  0  0
   -8.3946    2.0655    0.0000 H   0  0  0  0  0  0  0  0  0  0  0  0
    3.4056   -1.1360    0.0000 C   0  0  0  0  0  0  0  0  0  0  0  0
    4.7008   -1.8926    0.0000 C   0  0  0  0  0  0  0  0  0  0  0  0
    4.6927   -3.3934    0.0000 C   0  0  0  0  0  0  0  0  0  0  0  0
    5.9879   -4.1500    0.0000 H   0  0  0  0  0  0  0  0  0  0  0  0
    3.3894   -4.1376    0.0000 C   0  0  0  0  0  0  0  0  0  0  0  0
    3.3820   -5.6376    0.0000 H   0  0  0  0  0  0  0  0  0  0  0  0
    2.0942   -3.3810    0.0000 C   0  0  0  0  0  0  0  0  0  0  0  0
    0.7912   -4.1242    0.0000 H   0  0  0  0  0  0  0  0  0  0  0  0
    2.1023   -1.8802    0.0000 C   0  0  0  0  0  0  0  0  0  0  0  0
    0.8071   -1.1236    0.0000 H   0  0  0  0  0  0  0  0  0  0  0  0
    6.0038   -1.1494    0.0000 O   0  0  0  0  0  0  0  0  0  0  0  0
    7.2989   -1.9062    0.0000 H   0  0  0  0  0  0  0  0  0  0  0  0
    5.1423    3.3255    0.0000 C   0  0  0  0  0  0  0  0  0  0  0  0
    3.8460    4.0819    0.0000 C   0  0  0  0  0  0  0  0  0  0  0  0
    1.7098    2.8621    0.0000 H   0  0  0  0  0  0  0  0  0  0  0  0
    3.8534    5.5819    0.0000 C   0  0  0  0  0  0  0  0  0  0  0  0
    2.5582    6.3385    0.0000 H   0  0  0  0  0  0  0  0  0  0  0  0
    5.1571    6.3255    0.0000 C   0  0  0  0  0  0  0  0  0  0  0  0
    5.1645    7.8255    0.0000 H   0  0  0  0  0  0  0  0  0  0  0  0
    6.4534    5.5691    0.0000 C   0  0  0  0  0  0  0  0  0  0  0  0
    7.7560    6.3129    0.0000 H   0  0  0  0  0  0  0  0  0  0  0  0
    6.4460    4.0691    0.0000 C   0  0  0  0  0  0  0  0  0  0  0  0
    7.7412    3.3125    0.0000 H   0  0  0  0  0  0  0  0  0  0  0  0
  1  2  1  0  0  0  0 
  1  3  1  0  0  0  0 
  1  4  1  0  0  0  0 
  1  5  1  0  0  0  0 
  5  6  1  0  0  0  0 
  5  7  1  0  0  0  0 
  5  8  1  0  0  0  0 
  8  9  2  0  0  0  0 
  9 10  1  0  0  0  0 
 10 11  2  0  0  0  0 
 11 12  1  0  0  0  0 
 11 13  1  0  0  0  0 
 13 14  1  0  0  0  0 
 13 15  2  0  0  0  0 
 15 16  1  0  0  0  0 
 16 17  1  0  0  0  0 
 16 18  2  0  0  0  0 
 10 18  1  0  0  0  0 
 18 19  1  0  0  0  0 
 15 20  1  0  0  0  0 
 20 21  1  0  0  0  0 
 21 22  1  0  0  0  0 
 21 23  1  0  0  0  0 
 21 24  1  0  0  0  0 
 24 25  1  0  0  0  0 
 24 26  1  0  0  0  0 
 24 27  1  0  0  0  0 
 27 28  1  0  0  0  0 
 28 29  1  0  0  0  0 
 28 30  1  0  0  0  0 
 28 31  1  0  0  0  0 
 27 32  1  0  0  0  0 
 32 33  1  0  0  0  0 
 32 34  1  0  0  0  0 
 32 35  1  0  0  0  0 
  9 36  1  0  0  0  0 
 36 37  2  0  0  0  0 
 37 38  1  0  0  0  0 
 38 39  1  0  0  0  0 
 38 40  2  0  0  0  0 
 40 41  1  0  0  0  0 
 40 42  1  0  0  0  0 
 42 43  1  0  0  0  0 
 42 44  2  0  0  0  0 
 36 44  1  0  0  0  0 
 44 45  1  0  0  0  0 
 37 46  1  0  0  0  0 
 46 47  1  0  0  0  0 
  8 48  1  0  0  0  0 
 48 49  2  0  0  0  0 
 49 50  1  0  0  0  0 
 49 51  1  0  0  0  0 
 51 52  1  0  0  0  0 
 51 53  2  0  0  0  0 
 53 54  1  0  0  0  0 
 53 55  1  0  0  0  0 
 55 56  1  0  0  0  0 
 55 57  2  0  0  0  0 
 48 57  1  0  0  0  0 
 57 58  1  0  0  0  0 
M  END
> <Rank>
30

> <Priority_score>
0.004

> <Reaction_type>
aromatic hydroxylation

> <Parent_ID>
1

> <Parent_InChI>
InChI=1S/C26H29NO/c1-4-25(21-11-7-5-8-12-21)26(22-13-9-6-10-14-22)23-15-17-24(18-16-23)28-20-19-27(2)3/h5-18H,4,19-20H2,1-3H3

> <Parent_SMILES>
CC/C(=C(\C1=CC=CC=C1)/C2=CC=C(C=C2)OCCN(C)C)/C3=CC=CC=C3

$$$$
Molecule 1_metabolite 31
  CDK     0516241028

 44 46  0  0  0  0  0  0  0  0999 V2000
   -2.1304   -2.1185    0.0000 C   0  0  0  0  0  0  0  0  0  0  0  0
   -2.1304   -3.6185    0.0000 H   0  0  0  0  0  0  0  0  0  0  0  0
   -3.6076   -2.3790    0.0000 H   0  0  0  0  0  0  0  0  0  0  0  0
   -2.6435   -0.7089    0.0000 H   0  0  0  0  0  0  0  0  0  0  0  0
   -0.8314   -1.3685    0.0000 C   0  0  0  0  0  0  0  0  0  0  0  0
    0.6458   -1.1080    0.0000 H   0  0  0  0  0  0  0  0  0  0  0  0
   -0.3184   -2.7780    0.0000 H   0  0  0  0  0  0  0  0  0  0  0  0
   -0.8314    0.1315    0.0000 C   0  0  0  0  0  0  0  0  0  0  0  0
    1.2990    1.3615    0.0000 C   0  0  0  0  0  0  0  0  0  0  0  0
    3.0138    0.3715    0.0000 C   0  0  0  0  0  0  0  0  0  0  0  0
    4.3133    1.1223    0.0000 C   0  0  0  0  0  0  0  0  0  0  0  0
    4.3130    2.6223    0.0000 H   0  0  0  0  0  0  0  0  0  0  0  0
    5.6123    0.3723    0.0000 C   0  0  0  0  0  0  0  0  0  0  0  0
    6.9115    1.1221    0.0000 H   0  0  0  0  0  0  0  0  0  0  0  0
    5.6118   -1.1285    0.0000 C   0  0  0  0  0  0  0  0  0  0  0  0
    6.9109   -1.8785    0.0000 H   0  0  0  0  0  0  0  0  0  0  0  0
    4.3123   -1.8793    0.0000 C   0  0  0  0  0  0  0  0  0  0  0  0
    4.3126   -3.3793    0.0000 H   0  0  0  0  0  0  0  0  0  0  0  0
    3.0133   -1.1293    0.0000 C   0  0  0  0  0  0  0  0  0  0  0  0
    1.7141   -1.8791    0.0000 H   0  0  0  0  0  0  0  0  0  0  0  0
    1.2990    2.8615    0.0000 C   0  0  0  0  0  0  0  0  0  0  0  0
    2.7771    2.6011    0.0000 C   0  0  0  0  0  0  0  0  0  0  0  0
    3.2898    1.1914    0.0000 H   0  0  0  0  0  0  0  0  0  0  0  0
    3.7424    3.7502    0.0000 C   0  0  0  0  0  0  0  0  0  0  0  0
    5.2195    3.4892    0.0000 H   0  0  0  0  0  0  0  0  0  0  0  0
    3.2297    5.1599    0.0000 C   0  0  0  0  0  0  0  0  0  0  0  0
    4.1939    6.3089    0.0000 O   0  0  0  0  0  0  0  0  0  0  0  0
    1.7516    5.4204    0.0000 C   0  0  0  0  0  0  0  0  0  0  0  0
    1.2389    6.8300    0.0000 H   0  0  0  0  0  0  0  0  0  0  0  0
    0.7863    4.2712    0.0000 C   0  0  0  0  0  0  0  0  0  0  0  0
   -0.6908    4.5322    0.0000 H   0  0  0  0  0  0  0  0  0  0  0  0
   -0.1782    2.6012    0.0000 O   0  0  0  0  0  0  0  0  0  0  0  0
   -0.6914    1.1917    0.0000 H   0  0  0  0  0  0  0  0  0  0  0  0
   -2.1304    0.8815    0.0000 C   0  0  0  0  0  0  0  0  0  0  0  0
   -2.1299    2.3823    0.0000 C   0  0  0  0  0  0  0  0  0  0  0  0
   -0.8308    3.1321    0.0000 H   0  0  0  0  0  0  0  0  0  0  0  0
   -3.4290    3.1323    0.0000 C   0  0  0  0  0  0  0  0  0  0  0  0
   -3.4292    4.6323    0.0000 H   0  0  0  0  0  0  0  0  0  0  0  0
   -4.7285    2.3815    0.0000 C   0  0  0  0  0  0  0  0  0  0  0  0
   -6.0275    3.1315    0.0000 H   0  0  0  0  0  0  0  0  0  0  0  0
   -4.7290    0.8807    0.0000 C   0  0  0  0  0  0  0  0  0  0  0  0
   -6.0281    0.1309    0.0000 H   0  0  0  0  0  0  0  0  0  0  0  0
   -3.4299    0.1307    0.0000 C   0  0  0  0  0  0  0  0  0  0  0  0
   -3.4297   -1.3693    0.0000 H   0  0  0  0  0  0  0  0  0  0  0  0
  1  2  1  0  0  0  0 
  1  3  1  0  0  0  0 
  1  4  1  0  0  0  0 
  1  5  1  0  0  0  0 
  5  6  1  0  0  0  0 
  5  7  1  0  0  0  0 
  5  8  1  0  0  0  0 
  8  9  2  0  0  0  0 
  9 10  1  0  0  0  0 
 10 11  2  0  0  0  0 
 11 12  1  0  0  0  0 
 11 13  1  0  0  0  0 
 13 14  1  0  0  0  0 
 13 15  2  0  0  0  0 
 15 16  1  0  0  0  0 
 15 17  1  0  0  0  0 
 17 18  1  0  0  0  0 
 17 19  2  0  0  0  0 
 10 19  1  0  0  0  0 
 19 20  1  0  0  0  0 
  9 21  1  0  0  0  0 
 21 22  1  0  0  0  0 
 22 23  1  0  0  0  0 
 22 24  2  0  0  0  0 
 24 25  1  0  0  0  0 
 24 26  1  0  0  0  0 
 26 27  2  0  0  0  0 
 26 28  1  0  0  0  0 
 28 29  1  0  0  0  0 
 28 30  2  0  0  0  0 
 21 30  1  0  0  0  0 
 30 31  1  0  0  0  0 
 21 32  1  0  0  0  0 
 32 33  1  0  0  0  0 
  8 34  1  0  0  0  0 
 34 35  2  0  0  0  0 
 35 36  1  0  0  0  0 
 35 37  1  0  0  0  0 
 37 38  1  0  0  0  0 
 37 39  2  0  0  0  0 
 39 40  1  0  0  0  0 
 39 41  1  0  0  0  0 
 41 42  1  0  0  0  0 
 41 43  2  0  0  0  0 
 34 43  1  0  0  0  0 
 43 44  1  0  0  0  0 
M  END
> <Rank>
31

> <Priority_score>
0.0032

> <Reaction_type>
oxidation of 4-substituted anisole to quinone (substituent not a leaving group)

> <Parent_ID>
1

> <Parent_InChI>
InChI=1S/C26H29NO/c1-4-25(21-11-7-5-8-12-21)26(22-13-9-6-10-14-22)23-15-17-24(18-16-23)28-20-19-27(2)3/h5-18H,4,19-20H2,1-3H3

> <Parent_SMILES>
CC/C(=C(\C1=CC=CC=C1)/C2=CC=C(C=C2)OCCN(C)C)/C3=CC=CC=C3

$$$$
Molecule 1_metabolite 32
  CDK     0516241028

 16 15  0  0  0  0  0  0  0  0999 V2000
    5.1962   -1.7605    0.0000 C   0  0  0  0  0  0  0  0  0  0  0  0
    6.4952   -2.5105    0.0000 H   0  0  0  0  0  0  0  0  0  0  0  0
    6.1603   -0.6114    0.0000 H   0  0  0  0  0  0  0  0  0  0  0  0
    4.2320   -0.6114    0.0000 H   0  0  0  0  0  0  0  0  0  0  0  0
    3.8971   -2.5105    0.0000 C   0  0  0  0  0  0  0  0  0  0  0  0
    2.9329   -3.6595    0.0000 H   0  0  0  0  0  0  0  0  0  0  0  0
    4.8613   -3.6595    0.0000 H   0  0  0  0  0  0  0  0  0  0  0  0
    2.1824   -1.5205    0.0000 N   0  0  0  0  0  0  0  0  0  0  0  0
    0.8833   -2.2705    0.0000 C   0  0  0  0  0  0  0  0  0  0  0  0
   -0.4157   -1.5205    0.0000 H   0  0  0  0  0  0  0  0  0  0  0  0
   -0.0808   -3.4195    0.0000 H   0  0  0  0  0  0  0  0  0  0  0  0
    1.8475   -3.4195    0.0000 H   0  0  0  0  0  0  0  0  0  0  0  0
    2.1824   -0.0205    0.0000 C   0  0  0  0  0  0  0  0  0  0  0  0
    3.4814    0.7295    0.0000 H   0  0  0  0  0  0  0  0  0  0  0  0
    0.7052   -0.2809    0.0000 H   0  0  0  0  0  0  0  0  0  0  0  0
    1.6694    1.3891    0.0000 H   0  0  0  0  0  0  0  0  0  0  0  0
  1  2  1  0  0  0  0 
  1  3  1  0  0  0  0 
  1  4  1  0  0  0  0 
  1  5  1  0  0  0  0 
  5  6  1  0  0  0  0 
  5  7  1  0  0  0  0 
  5  8  1  0  0  0  0 
  8  9  1  0  0  0  0 
  9 10  1  0  0  0  0 
  9 11  1  0  0  0  0 
  9 12  1  0  0  0  0 
  8 13  1  0  0  0  0 
 13 14  1  0  0  0  0 
 13 15  1  0  0  0  0 
 13 16  1  0  0  0  0 
M  END
> <Rank>
31

> <Priority_score>
0.0032

> <Reaction_type>
oxidation of 4-substituted anisole to quinone (substituent not a leaving group)

> <Parent_ID>
1

> <Parent_InChI>
InChI=1S/C26H29NO/c1-4-25(21-11-7-5-8-12-21)26(22-13-9-6-10-14-22)23-15-17-24(18-16-23)28-20-19-27(2)3/h5-18H,4,19-20H2,1-3H3

> <Parent_SMILES>
CC/C(=C(\C1=CC=CC=C1)/C2=CC=C(C=C2)OCCN(C)C)/C3=CC=CC=C3

$$$$
Molecule 1_metabolite 33
  CDK     0516241028

 58 60  0  0  0  0  0  0  0  0999 V2000
   -5.0308    3.8603    0.0000 C   0  0  0  0  0  0  0  0  0  0  0  0
   -5.7808    5.1593    0.0000 H   0  0  0  0  0  0  0  0  0  0  0  0
   -6.4404    3.3473    0.0000 H   0  0  0  0  0  0  0  0  0  0  0  0
   -4.7704    2.3831    0.0000 H   0  0  0  0  0  0  0  0  0  0  0  0
   -3.5308    3.8603    0.0000 C   0  0  0  0  0  0  0  0  0  0  0  0
   -2.1213    4.3733    0.0000 H   0  0  0  0  0  0  0  0  0  0  0  0
   -3.7913    5.3375    0.0000 H   0  0  0  0  0  0  0  0  0  0  0  0
   -2.7808    2.5613    0.0000 C   0  0  0  0  0  0  0  0  0  0  0  0
   -0.8008    2.5613    0.0000 C   0  0  0  0  0  0  0  0  0  0  0  0
   -0.0508    3.8603    0.0000 C   0  0  0  0  0  0  0  0  0  0  0  0
    1.4500    3.8598    0.0000 C   0  0  0  0  0  0  0  0  0  0  0  0
    2.1998    2.5607    0.0000 H   0  0  0  0  0  0  0  0  0  0  0  0
    2.2000    5.1589    0.0000 C   0  0  0  0  0  0  0  0  0  0  0  0
    3.7000    5.1591    0.0000 H   0  0  0  0  0  0  0  0  0  0  0  0
    1.4492    6.4584    0.0000 C   0  0  0  0  0  0  0  0  0  0  0  0
    2.1992    7.7574    0.0000 H   0  0  0  0  0  0  0  0  0  0  0  0
   -0.0517    6.4589    0.0000 C   0  0  0  0  0  0  0  0  0  0  0  0
   -0.8015    7.7580    0.0000 H   0  0  0  0  0  0  0  0  0  0  0  0
   -0.8017    5.1598    0.0000 C   0  0  0  0  0  0  0  0  0  0  0  0
   -2.3017    5.1596    0.0000 H   0  0  0  0  0  0  0  0  0  0  0  0
    0.1892    0.8465    0.0000 C   0  0  0  0  0  0  0  0  0  0  0  0
    1.6900    0.8463    0.0000 C   0  0  0  0  0  0  0  0  0  0  0  0
    2.9197    2.9769    0.0000 H   0  0  0  0  0  0  0  0  0  0  0  0
    2.4410   -0.4531    0.0000 C   0  0  0  0  0  0  0  0  0  0  0  0
    3.9410   -0.4526    0.0000 H   0  0  0  0  0  0  0  0  0  0  0  0
    1.6913   -1.7523    0.0000 C   0  0  0  0  0  0  0  0  0  0  0  0
    0.1904   -1.7520    0.0000 C   0  0  0  0  0  0  0  0  0  0  0  0
   -0.5594   -3.0512    0.0000 H   0  0  0  0  0  0  0  0  0  0  0  0
   -0.5606   -0.4526    0.0000 C   0  0  0  0  0  0  0  0  0  0  0  0
   -2.0606   -0.4531    0.0000 O   0  0  0  0  0  0  0  0  0  0  0  0
   -2.8102   -1.7524    0.0000 H   0  0  0  0  0  0  0  0  0  0  0  0
    2.4413   -3.0513    0.0000 O   0  0  0  0  0  0  0  0  0  0  0  0
    3.9413   -3.0513    0.0000 C   0  0  0  0  0  0  0  0  0  0  0  0
    5.3508   -2.5383    0.0000 H   0  0  0  0  0  0  0  0  0  0  0  0
    3.6808   -1.5741    0.0000 H   0  0  0  0  0  0  0  0  0  0  0  0
    4.6913   -4.3503    0.0000 C   0  0  0  0  0  0  0  0  0  0  0  0
    3.2817   -4.8634    0.0000 H   0  0  0  0  0  0  0  0  0  0  0  0
    4.9517   -5.8276    0.0000 H   0  0  0  0  0  0  0  0  0  0  0  0
    6.6713   -4.3503    0.0000 N   0  0  0  0  0  0  0  0  0  0  0  0
    7.4213   -5.6494    0.0000 C   0  0  0  0  0  0  0  0  0  0  0  0
    8.9213   -5.6494    0.0000 H   0  0  0  0  0  0  0  0  0  0  0  0
    6.0117   -6.1624    0.0000 H   0  0  0  0  0  0  0  0  0  0  0  0
    7.6817   -7.1266    0.0000 H   0  0  0  0  0  0  0  0  0  0  0  0
    7.4213   -3.0513    0.0000 C   0  0  0  0  0  0  0  0  0  0  0  0
    6.6713   -1.7523    0.0000 H   0  0  0  0  0  0  0  0  0  0  0  0
    8.5703   -2.0871    0.0000 H   0  0  0  0  0  0  0  0  0  0  0  0
    8.5703   -4.0155    0.0000 H   0  0  0  0  0  0  0  0  0  0  0  0
   -3.5308    1.2622    0.0000 C   0  0  0  0  0  0  0  0  0  0  0  0
   -2.7800   -0.0373    0.0000 C   0  0  0  0  0  0  0  0  0  0  0  0
   -1.2800   -0.0371    0.0000 H   0  0  0  0  0  0  0  0  0  0  0  0
   -3.5300   -1.3363    0.0000 C   0  0  0  0  0  0  0  0  0  0  0  0
   -2.7802   -2.6355    0.0000 H   0  0  0  0  0  0  0  0  0  0  0  0
   -5.0308   -1.3359    0.0000 C   0  0  0  0  0  0  0  0  0  0  0  0
   -5.7808   -2.6349    0.0000 H   0  0  0  0  0  0  0  0  0  0  0  0
   -5.7817   -0.0363    0.0000 C   0  0  0  0  0  0  0  0  0  0  0  0
   -7.2817   -0.0366    0.0000 H   0  0  0  0  0  0  0  0  0  0  0  0
   -5.0317    1.2627    0.0000 C   0  0  0  0  0  0  0  0  0  0  0  0
   -5.7815    2.5619    0.0000 H   0  0  0  0  0  0  0  0  0  0  0  0
  1  2  1  0  0  0  0 
  1  3  1  0  0  0  0 
  1  4  1  0  0  0  0 
  1  5  1  0  0  0  0 
  5  6  1  0  0  0  0 
  5  7  1  0  0  0  0 
  5  8  1  0  0  0  0 
  8  9  2  0  0  0  0 
  9 10  1  0  0  0  0 
 10 11  2  0  0  0  0 
 11 12  1  0  0  0  0 
 11 13  1  0  0  0  0 
 13 14  1  0  0  0  0 
 13 15  2  0  0  0  0 
 15 16  1  0  0  0  0 
 15 17  1  0  0  0  0 
 17 18  1  0  0  0  0 
 17 19  2  0  0  0  0 
 10 19  1  0  0  0  0 
 19 20  1  0  0  0  0 
  9 21  1  0  0  0  0 
 21 22  2  0  0  0  0 
 22 23  1  0  0  0  0 
 22 24  1  0  0  0  0 
 24 25  1  0  0  0  0 
 24 26  2  0  0  0  0 
 26 27  1  0  0  0  0 
 27 28  1  0  0  0  0 
 27 29  2  0  0  0  0 
 21 29  1  0  0  0  0 
 29 30  1  0  0  0  0 
 30 31  1  0  0  0  0 
 26 32  1  0  0  0  0 
 32 33  1  0  0  0  0 
 33 34  1  0  0  0  0 
 33 35  1  0  0  0  0 
 33 36  1  0  0  0  0 
 36 37  1  0  0  0  0 
 36 38  1  0  0  0  0 
 36 39  1  0  0  0  0 
 39 40  1  0  0  0  0 
 40 41  1  0  0  0  0 
 40 42  1  0  0  0  0 
 40 43  1  0  0  0  0 
 39 44  1  0  0  0  0 
 44 45  1  0  0  0  0 
 44 46  1  0  0  0  0 
 44 47  1  0  0  0  0 
  8 48  1  0  0  0  0 
 48 49  2  0  0  0  0 
 49 50  1  0  0  0  0 
 49 51  1  0  0  0  0 
 51 52  1  0  0  0  0 
 51 53  2  0  0  0  0 
 53 54  1  0  0  0  0 
 53 55  1  0  0  0  0 
 55 56  1  0  0  0  0 
 55 57  2  0  0  0  0 
 48 57  1  0  0  0  0 
 57 58  1  0  0  0  0 
M  END
> <Rank>
33

> <Priority_score>
0.0

> <Reaction_type>
aromatic hydroxylation

> <Parent_ID>
1

> <Parent_InChI>
InChI=1S/C26H29NO/c1-4-25(21-11-7-5-8-12-21)26(22-13-9-6-10-14-22)23-15-17-24(18-16-23)28-20-19-27(2)3/h5-18H,4,19-20H2,1-3H3

> <Parent_SMILES>
CC/C(=C(\C1=CC=CC=C1)/C2=CC=C(C=C2)OCCN(C)C)/C3=CC=CC=C3

$$$$
