
     RDKit          2D

 36 37  0  0  0  0  0  0  0  0999 V2000
    2.1949   -3.0332    0.0000 O   0  0  0  0  0  0  0  0  0  0  0  0
    2.1004   -1.5362    0.0000 C   0  0  0  0  0  0  0  0  0  0  0  0
    3.3496   -0.7058    0.0000 C   0  0  0  0  0  0  0  0  0  0  0  0
    4.5988    0.1245    0.0000 C   0  0  0  0  0  0  0  0  0  0  0  0
    5.8480    0.9549    0.0000 C   0  0  0  0  0  0  0  0  0  0  0  0
    7.0972    1.7852    0.0000 F   0  0  0  0  0  0  0  0  0  0  0  0
    6.6784   -0.2943    0.0000 F   0  0  0  0  0  0  0  0  0  0  0  0
    5.0177    2.2041    0.0000 F   0  0  0  0  0  0  0  0  0  0  0  0
    0.7567   -0.8695    0.0000 N   0  0  0  0  0  0  0  0  0  0  0  0
   -0.4925   -1.6998    0.0000 C   0  0  0  0  0  0  0  0  0  0  0  0
   -1.8362   -1.0332    0.0000 C   0  0  0  0  0  0  0  0  0  0  0  0
   -1.9307    0.4639    0.0000 C   0  0  0  0  0  0  0  0  0  0  0  0
   -0.6815    1.2942    0.0000 C   0  0  0  0  0  0  0  0  0  0  0  0
    0.6622    0.6275    0.0000 C   0  0  0  0  0  0  0  0  0  0  0  0
   -3.2599   -0.2314    0.0000 C   0  0  0  0  0  0  0  0  0  0  0  0
   -4.3318    0.8179    0.0000 C   0  0  0  0  0  0  0  0  0  0  0  0
   -5.8108    0.5675    0.0000 C   0  0  0  0  0  0  0  0  0  0  0  0
   -7.2897    0.3170    0.0000 F   0  0  0  0  0  0  0  0  0  0  0  0
   -6.0612    2.0464    0.0000 F   0  0  0  0  0  0  0  0  0  0  0  0
   -5.5603   -0.9115    0.0000 F   0  0  0  0  0  0  0  0  0  0  0  0
   -3.6651    2.1616    0.0000 N   0  0  0  0  0  0  0  0  0  0  0  0
   -2.1812    1.9428    0.0000 O   0  0  0  0  0  0  0  0  0  0  0  0
    4.1799   -1.9550    0.0000 H   0  0  0  0  0  0  0  0  0  0  0  0
    2.8054    0.3805    0.0000 H   0  0  0  0  0  0  0  0  0  0  0  0
    3.7685    1.3737    0.0000 H   0  0  0  0  0  0  0  0  0  0  0  0
    5.4292   -1.1247    0.0000 H   0  0  0  0  0  0  0  0  0  0  0  0
    0.5421   -2.7859    0.0000 H   0  0  0  0  0  0  0  0  0  0  0  0
   -1.3824   -2.9074    0.0000 H   0  0  0  0  0  0  0  0  0  0  0  0
   -2.2594   -2.4722    0.0000 H   0  0  0  0  0  0  0  0  0  0  0  0
   -2.6264   -1.1388    0.0000 H   0  0  0  0  0  0  0  0  0  0  0  0
   -1.4226    2.5983    0.0000 H   0  0  0  0  0  0  0  0  0  0  0  0
    0.2084    2.5017    0.0000 H   0  0  0  0  0  0  0  0  0  0  0  0
    1.0854    2.0666    0.0000 H   0  0  0  0  0  0  0  0  0  0  0  0
    1.8771    0.6405    0.0000 H   0  0  0  0  0  0  0  0  0  0  0  0
   -2.9924   -0.9823    0.0000 H   0  0  0  0  0  0  0  0  0  0  0  0
   -4.4155   -1.1877    0.0000 H   0  0  0  0  0  0  0  0  0  0  0  0
  1  2  2  0
  2  3  1  0
  3  4  1  0
  4  5  1  0
  5  6  1  0
  5  7  1  0
  5  8  1  0
  2  9  1  0
  9 10  1  0
 10 11  1  0
 11 12  1  0
 12 13  1  0
 13 14  1  0
 12 15  1  0
 15 16  1  0
 16 17  1  0
 17 18  1  0
 17 19  1  0
 17 20  1  0
 16 21  2  0
 21 22  1  0
 14  9  1  0
 22 12  1  0
  3 23  1  0
  3 24  1  0
  4 25  1  0
  4 26  1  0
 10 27  1  0
 10 28  1  0
 11 29  1  0
 11 30  1  0
 13 31  1  0
 13 32  1  0
 14 33  1  0
 14 34  1  0
 15 35  1  0
 15 36  1  0
M  END

